/*---------------------------------------------------------------------------*\
| =========                 |                                                 |
| \\      /  F ield         | OpenFOAM: The Open Source CFD Toolbox           |
|  \\    /   O peration     | Version:  2312                                  |
|   \\  /    A nd           | Website:  www.openfoam.com                      |
|    \\/     M anipulation  |                                                 |
\*---------------------------------------------------------------------------*/
Build  : _c39a0f64-20231220 OPENFOAM=2312 version=2312
Arch   : "LSB;label=32;scalar=64"
Exec   : blockMesh
Date   : Jun 06 2024
Time   : 19:06:14
Host   : YanD
PID    : 81097
I/O    : uncollated
Case   : /home/yand/OpenFOAM/yand-v2312/run/github/yand_openfoam/test/freeCAD_heatexchg
nProcs : 1
trapFpe: Floating point exception trapping enabled (FOAM_SIGFPE).
fileModificationChecking : Monitoring run-time modified files using timeStampMaster (fileModificationSkew 5, maxFileModificationPolls 20)
allowSystemOperations : Allowing user-supplied system call operations

// * * * * * * * * * * * * * * * * * * * * * * * * * * * * * * * * * * * * * //
Create time

Creating block mesh from "system/blockMeshDict"
Creating block edges
No non-planar block faces defined
Creating topology blocks

Creating topology patches - from boundary section

Creating block mesh topology - scaling/transform applied later

Check topology

	Basic statistics
		Number of internal faces : 0
		Number of boundary faces : 6
		Number of defined boundary faces : 6
		Number of undefined boundary faces : 0
	Checking patch -> block consistency

Creating block offsets
Creating merge list (topological search)...

Creating polyMesh from blockMesh
Creating patches
Creating cells
Creating points with scale (100 100 100)
    Block 0 cell size :
        i : 40 .. 40
        j : 100 .. 100
        k : 40 .. 40

No patch pairs to merge

Writing polyMesh with 0 cellZones
----------------
Mesh Information
----------------
  boundingBox: (-100 -400 -100) (100 100 100)
  nPoints: 216
  nCells: 125
  nFaces: 450
  nInternalFaces: 300
----------------
Patches
----------------
  patch 0 (start: 300 size: 25) name: movingWall
  patch 1 (start: 325 size: 75) name: fixedWalls
  patch 2 (start: 400 size: 50) name: frontAndBack

End

