/*---------------------------------------------------------------------------*\
| =========                 |                                                 |
| \\      /  F ield         | OpenFOAM: The Open Source CFD Toolbox           |
|  \\    /   O peration     | Version:  2312                                  |
|   \\  /    A nd           | Website:  www.openfoam.com                      |
|    \\/     M anipulation  |                                                 |
\*---------------------------------------------------------------------------*/
Build  : _c39a0f64-20231220 OPENFOAM=2312 version=2312
Arch   : "LSB;label=32;scalar=64"
Exec   : snappyHexMesh -overwrite
Date   : Jun 06 2024
Time   : 19:06:14
Host   : YanD
PID    : 81099
I/O    : uncollated
Case   : /home/yand/OpenFOAM/yand-v2312/run/github/yand_openfoam/test/freeCAD_heatexchg
nProcs : 1
trapFpe: Floating point exception trapping enabled (FOAM_SIGFPE).
fileModificationChecking : Monitoring run-time modified files using timeStampMaster (fileModificationSkew 5, maxFileModificationPolls 20)
allowSystemOperations : Allowing user-supplied system call operations

// * * * * * * * * * * * * * * * * * * * * * * * * * * * * * * * * * * * * * //
Create time

Create mesh for time = 0

Read mesh in = 0 s

Overall mesh bounding box  : (-100 -400 -100) (100 100 100)
Relative tolerance         : 1e-06
Absolute matching distance : 0.000574456

Reading refinement surfaces.
Read refinement surfaces in = 0.02 s

Reading refinement shells.
--> FOAM Warning : 
    From Foam::shellSurfaces::shellSurfaces(const Foam::searchableSurfaces&, const Foam::dictionary&, bool)
    in file shellSurfaces/shellSurfaces.C at line 809
    Reading "system/snappyHexMeshDict/castellatedMeshControls/refinementRegions" at line 253 to 260
    Not all entries in refinementRegions dictionary were used. The following entries were not used : 2(bottomPatchBox topPatchBox)
Read refinement shells in = 0 s

Setting refinement level of surface to be consistent with shells.
For geometry inlet.obj detected 0 uncached triangles out of 330
For geometry inlethemisphere.obj detected 0 uncached triangles out of 4404
For geometry outlet.obj detected 0 uncached triangles out of 250
For geometry outlethemisphere.obj detected 0 uncached triangles out of 4324
For geometry tubing.obj detected 0 uncached triangles out of 3804
Checked shell refinement in = 0.03 s

Reading features.
Read edgeMesh fullheatexchg.eMesh
    points      : 3644
    edges       : 3763
    boundingBox : (-35 -321.801 -50.9808) (46.6506 69.3013 34.9891)

Refinement level according to distance to "fullheatexchg.eMesh" (3644 points, 3763 edges).
    level 5 for all cells within 0 metre.
Read features in = 0 s


Determining initial surface intersections
-----------------------------------------

Edge intersection testing:
    Number of edges             : 450
    Number of edges to retest   : 0
    Number of intersected edges : 0
Edge intersection testing:
    Number of edges             : 450
    Number of edges to retest   : 450
    Number of intersected edges : 21
Calculated surface intersections in = 0 s

Initial mesh : cells:125  faces:450  points:216
Cells per refinement level:
    0	125
Setting refinement level of surface to be consistent with curvature.
Checked curvature refinement in = 0 s


Adding patches for surface regions
----------------------------------

Patch Type                Region                        
----- ----                ------                        
inlet:

3     patch               inlet                         

inlethemisphere:

4     wall                inlethemisphere               

outlet:

5     patch               outlet                        

outlethemisphere:

6     wall                outlethemisphere              

tubing:

7     wall                tubing                        

Added patches in = 0 s

Edge intersection testing:
    Number of edges             : 450
    Number of edges to retest   : 0
    Number of intersected edges : 21
Decomposition method none [1]

Refinement phase
----------------

Found point (0.05 0.05 1.5) in cell 72 on processor 0

Feature refinement iteration 0
------------------------------

Marked for refinement due to explicit features             : 21 cells.
Determined cells to refine in = 0 s
Selected for feature refinement : 21 cells (out of 125)
Edge intersection testing:
    Number of edges             : 996
    Number of edges to retest   : 832
    Number of intersected edges : 73
Refined mesh in = 0.01 s
After refinement feature refinement iteration 0 : cells:272  faces:996  points:484
Cells per refinement level:
    0	104
    1	168

Feature refinement iteration 1
------------------------------

Marked for refinement due to explicit features             : 58 cells.
Determined cells to refine in = 0 s
Selected for feature refinement : 83 cells (out of 272)
Edge intersection testing:
    Number of edges             : 2979
    Number of edges to retest   : 2851
    Number of intersected edges : 404
Refined mesh in = 0 s
After refinement feature refinement iteration 1 : cells:853  faces:2979  points:1326
Cells per refinement level:
    0	79
    1	310
    2	464

Feature refinement iteration 2
------------------------------

Marked for refinement due to explicit features             : 176 cells.
Determined cells to refine in = 0.01 s
Selected for feature refinement : 231 cells (out of 853)
Edge intersection testing:
    Number of edges             : 8550
    Number of edges to retest   : 7946
    Number of intersected edges : 1185
Refined mesh in = 0.01 s
After refinement feature refinement iteration 2 : cells:2470  faces:8550  points:3721
Cells per refinement level:
    0	68
    1	352
    2	658
    3	1392

Feature refinement iteration 3
------------------------------

Marked for refinement due to explicit features             : 432 cells.
Determined cells to refine in = 0.01 s
Selected for feature refinement : 610 cells (out of 2470)
Edge intersection testing:
    Number of edges             : 23643
    Number of edges to retest   : 22270
    Number of intersected edges : 3025
Refined mesh in = 0.02 s
After refinement feature refinement iteration 3 : cells:6740  faces:23643  points:10450
Cells per refinement level:
    0	47
    1	477
    2	883
    3	1917
    4	3416

Feature refinement iteration 4
------------------------------

Marked for refinement due to explicit features             : 806 cells.
Determined cells to refine in = 0.05 s
Selected for feature refinement : 1319 cells (out of 6740)
Edge intersection testing:
    Number of edges             : 56430
    Number of edges to retest   : 51098
    Number of intersected edges : 6531
Refined mesh in = 0.08 s
After refinement feature refinement iteration 4 : cells:15973  faces:56430  points:25370
Cells per refinement level:
    0	41
    1	512
    2	906
    3	2121
    4	6193
    5	6200

Feature refinement iteration 5
------------------------------

Marked for refinement due to explicit features             : 90 cells.
Determined cells to refine in = 0.09 s
Selected for feature refinement : 119 cells (out of 15973)
Edge intersection testing:
    Number of edges             : 59124
    Number of edges to retest   : 9052
    Number of intersected edges : 6684
Refined mesh in = 0.04 s
After refinement feature refinement iteration 5 : cells:16806  faces:59124  points:26383
Cells per refinement level:
    0	41
    1	512
    2	900
    3	2146
    4	6287
    5	6920

Feature refinement iteration 6
------------------------------

Marked for refinement due to explicit features             : 21 cells.
Determined cells to refine in = 0.1 s
Selected for feature refinement : 31 cells (out of 16806)
Edge intersection testing:
    Number of edges             : 59811
    Number of edges to retest   : 2455
    Number of intersected edges : 6761
Refined mesh in = 0.04 s
After refinement feature refinement iteration 6 : cells:17023  faces:59811  points:26636
Cells per refinement level:
    0	41
    1	512
    2	898
    3	2154
    4	6330
    5	7088

Feature refinement iteration 7
------------------------------

Marked for refinement due to explicit features             : 9 cells.
Determined cells to refine in = 0.1 s
Selected for feature refinement : 9 cells (out of 17023)
Edge intersection testing:
    Number of edges             : 60018
    Number of edges to retest   : 757
    Number of intersected edges : 6800
Refined mesh in = 0.02 s
After refinement feature refinement iteration 7 : cells:17086  faces:60018  points:26713
Cells per refinement level:
    0	41
    1	512
    2	898
    3	2154
    4	6321
    5	7160

Feature refinement iteration 8
------------------------------

Marked for refinement due to explicit features             : 1 cells.
Determined cells to refine in = 0.1 s
Selected for feature refinement : 1 cells (out of 17086)
Edge intersection testing:
    Number of edges             : 60039
    Number of edges to retest   : 102
    Number of intersected edges : 6800
Refined mesh in = 0.05 s
After refinement feature refinement iteration 8 : cells:17093  faces:60039  points:26720
Cells per refinement level:
    0	41
    1	512
    2	898
    3	2154
    4	6320
    5	7168

Feature refinement iteration 9
------------------------------

Marked for refinement due to explicit features             : 0 cells.
Determined cells to refine in = 0.1 s
Selected for feature refinement : 0 cells (out of 17093)
Stopping refining since too few cells selected.


Surface refinement iteration 0
------------------------------

Marked for refinement due to surface intersection          : 810 cells.
Determined cells to refine in = 0 s
Selected for refinement : 878 cells (out of 17093)
Edge intersection testing:
    Number of edges             : 79059
    Number of edges to retest   : 39781
    Number of intersected edges : 8736
Refined mesh in = 0.08 s
After refinement surface refinement iteration 0 : cells:23239  faces:79059  points:33372
Cells per refinement level:
    0	41
    1	462
    2	1140
    3	2748
    4	11680
    5	7168

Surface refinement iteration 1
------------------------------

Marked for refinement due to surface intersection          : 796 cells.
Determined cells to refine in = 0 s
Selected for refinement : 855 cells (out of 23239)
Edge intersection testing:
    Number of edges             : 97656
    Number of edges to retest   : 32062
    Number of intersected edges : 10420
Refined mesh in = 0.09 s
After refinement surface refinement iteration 1 : cells:29224  faces:97656  points:39988
Cells per refinement level:
    0	40
    1	450
    2	1074
    3	3948
    4	16544
    5	7168

Surface refinement iteration 2
------------------------------

Marked for refinement due to surface intersection          : 1192 cells.
Determined cells to refine in = 0 s
Selected for refinement : 1297 cells (out of 29224)
Edge intersection testing:
    Number of edges             : 125748
    Number of edges to retest   : 38070
    Number of intersected edges : 13206
Refined mesh in = 0.1 s
After refinement surface refinement iteration 2 : cells:38303  faces:125748  points:49873
Cells per refinement level:
    0	37
    1	456
    2	1118
    3	3572
    4	25952
    5	7168

Surface refinement iteration 3
------------------------------

Marked for refinement due to surface intersection          : 64 cells.
Determined cells to refine in = 0.01 s
Selected for refinement : 70 cells (out of 38303)
Edge intersection testing:
    Number of edges             : 127227
    Number of edges to retest   : 3239
    Number of intersected edges : 13338
Refined mesh in = 0.07 s
After refinement surface refinement iteration 3 : cells:38793  faces:127227  points:50365
Cells per refinement level:
    0	37
    1	454
    2	1130
    3	3540
    4	26464
    5	7168

Surface refinement iteration 4
------------------------------

Marked for refinement due to surface intersection          : 0 cells.
Determined cells to refine in = 0.01 s
Selected for refinement : 0 cells (out of 38793)
Stopping refining since too few cells selected.


Removing mesh beyond surface intersections
------------------------------------------

Setting cellZones according to locationsInMesh:
Location : (0.05 0.05 1.5)
    cellZone : none

For cellZone none found point (0.05 0.05 1.5) in global region 0 out of 1 regions.
--> FOAM Warning : 
    From void Foam::meshRefinement::nearestFace(const labelUList&, const Foam::bitSet&, Foam::autoPtr<Foam::mapDistribute>&, Foam::labelList&, Foam::label) const
    in file meshRefinement/meshRefinement.C at line 515
    Did not visit some faces, e.g. face 0 at (-60 -350 -80)
Keeping all cells containing inside points
Selected for keeping : 38793 cells.
Edge intersection testing:
    Number of edges             : 127227
    Number of edges to retest   : 0
    Number of intersected edges : 13338

Shell refinement iteration 0
----------------------------

Marked for refinement due to distance to explicit features : 0 cells.
Marked for refinement due to refinement shells             : 0 cells.
Determined cells to refine in = 0.11 s
Selected for internal refinement : 2187 cells (out of 38793)
Edge intersection testing:
    Number of edges             : 175251
    Number of edges to retest   : 119705
    Number of intersected edges : 14982
Refined mesh in = 0.19 s
After refinement shell refinement iteration 0 : cells:54102  faces:175251  points:67702
Cells per refinement level:
    0	15
    1	554
    2	1588
    3	3734
    4	33579
    5	14632

Shell refinement iteration 1
----------------------------

Marked for refinement due to distance to explicit features : 0 cells.
Marked for refinement due to refinement shells             : 0 cells.
Determined cells to refine in = 0.03 s
Selected for internal refinement : 606 cells (out of 54102)
Edge intersection testing:
    Number of edges             : 188793
    Number of edges to retest   : 43095
    Number of intersected edges : 15408
Refined mesh in = 0.13 s
After refinement shell refinement iteration 1 : cells:58344  faces:188793  points:72738
Cells per refinement level:
    0	9
    1	556
    2	1738
    3	5398
    4	33963
    5	16680

Shell refinement iteration 2
----------------------------

Marked for refinement due to distance to explicit features : 0 cells.
Marked for refinement due to refinement shells             : 0 cells.
Determined cells to refine in = 0.03 s
Selected for internal refinement : 153 cells (out of 58344)
Edge intersection testing:
    Number of edges             : 192198
    Number of edges to retest   : 10986
    Number of intersected edges : 15458
Refined mesh in = 0.11 s
After refinement shell refinement iteration 2 : cells:59415  faces:192198  points:73995
Cells per refinement level:
    0	4
    1	514
    2	2366
    3	5617
    4	33970
    5	16944

Shell refinement iteration 3
----------------------------

Marked for refinement due to distance to explicit features : 0 cells.
Marked for refinement due to refinement shells             : 0 cells.
Determined cells to refine in = 0.03 s
Selected for internal refinement : 23 cells (out of 59415)
Edge intersection testing:
    Number of edges             : 192696
    Number of edges to retest   : 2024
    Number of intersected edges : 15488
Refined mesh in = 0.1 s
After refinement shell refinement iteration 3 : cells:59576  faces:192696  points:74169
Cells per refinement level:
    0	2
    1	529
    2	2372
    3	5631
    4	33970
    5	17072

Shell refinement iteration 4
----------------------------

Marked for refinement due to distance to explicit features : 0 cells.
Marked for refinement due to refinement shells             : 0 cells.
Determined cells to refine in = 0.03 s
Selected for internal refinement : 12 cells (out of 59576)
Edge intersection testing:
    Number of edges             : 192966
    Number of edges to retest   : 990
    Number of intersected edges : 15512
Refined mesh in = 0.11 s
After refinement shell refinement iteration 4 : cells:59660  faces:192966  points:74271
Cells per refinement level:
    0	2
    1	529
    2	2372
    3	5631
    4	33958
    5	17168

Shell refinement iteration 5
----------------------------

Marked for refinement due to distance to explicit features : 0 cells.
Marked for refinement due to refinement shells             : 0 cells.
Determined cells to refine in = 0.03 s
Selected for internal refinement : 4 cells (out of 59660)
Stopping refining since too few cells selected.


Dangling coarse cells refinement iteration 0
--------------------------------------------

Determined cells to refine in = 0 s
Selected for refinement : 6 cells (out of 59660)
Edge intersection testing:
    Number of edges             : 193056
    Number of edges to retest   : 726
    Number of intersected edges : 15512
Refined mesh in = 0.09 s
After refinement coarse cell refinement iteration 0 : cells:59702  faces:193056  points:74283
Cells per refinement level:
    0	2
    1	529
    2	2372
    3	5631
    4	33952
    5	17216

Dangling coarse cells refinement iteration 1
--------------------------------------------

Determined cells to refine in = 0 s
Selected for refinement : 0 cells (out of 59702)
Stopping refining since too few cells selected.


Dangling coarse cells refinement iteration 0
--------------------------------------------

Determined cells to refine in = 0 s
Selected for refinement : 0 cells (out of 59702)
Stopping refining since too few cells selected.


Refinement transition refinement iteration 0
--------------------------------------------

Determined cells to refine in = 0 s
Selected for refinement : 0 cells (out of 59702)
Stopping refining since too few cells selected.


Splitting mesh at surface intersections
---------------------------------------

Introducing baffles for 15512 faces that are intersected by the surface.

Setting cellZones according to locationsInMesh:
Location : (0.05 0.05 1.5)
    cellZone : none

For cellZone none found point (0.05 0.05 1.5) in global region 0 out of 1 regions.
Edge intersection testing:
    Number of edges             : 208568
    Number of edges to retest   : 92652
    Number of intersected edges : 30466
Created baffles in = 0.24 s


After introducing baffles : cells:59702  faces:208568  points:74283
Cells per refinement level:
    0	2
    1	529
    2	2372
    3	5631
    4	33952
    5	17216

Introducing baffles to block off problem cells
----------------------------------------------

markFacesOnProblemCells : marked 617 additional internal faces to be converted into baffles.
Analyzed problem cells in = 0.09 s


Introducing baffles to delete problem cells.

Edge intersection testing:
    Number of edges             : 209185
    Number of edges to retest   : 4117
    Number of intersected edges : 30466
Created baffles in = 0.11 s


After introducing baffles : cells:59702  faces:209185  points:74283
Cells per refinement level:
    0	2
    1	529
    2	2372
    3	5631
    4	33952
    5	17216
Setting cellZones according to locationsInMesh:
Location : (0.05 0.05 1.5)
    cellZone : none

For cellZone none found point (0.05 0.05 1.5) in global region 0 out of 306 regions.
Edge intersection testing:
    Number of edges             : 209185
    Number of edges to retest   : 92403
    Number of intersected edges : 30466

Remove unreachable sections of mesh
-----------------------------------

Keeping all cells containing points 1((0.05 0.05 1.5))
Selected for keeping : 59397 cells.
Edge intersection testing:
    Number of edges             : 207187
    Number of edges to retest   : 0
    Number of intersected edges : 29314
Split mesh in = 0.32 s


After subsetting : cells:59397  faces:207187  points:74283
Cells per refinement level:
    0	2
    1	529
    2	2372
    3	5631
    4	33752
    5	17111

Introducing zones for interfaces
--------------------------------

Setting cellZones according to locationsInMesh:
Location : (0.05 0.05 1.5)
    cellZone : none

For cellZone none found point (0.05 0.05 1.5) in global region 0 out of 1 regions.
Setting faceZones according to neighbouring cellZones:

Edge intersection testing:
    Number of edges             : 207187
    Number of edges to retest   : 0
    Number of intersected edges : 29314

Handling cells with snap problems
---------------------------------

Introducing baffles for 29314 faces that are intersected by the surface.

Setting cellZones according to locationsInMesh:
Location : (0.05 0.05 1.5)
    cellZone : none

For cellZone none found point (0.05 0.05 1.5) in global region 0 out of 1 regions.
Edge intersection testing:
    Number of edges             : 207187
    Number of edges to retest   : 90405
    Number of intersected edges : 29314
Created baffles in = 0.39 s


After introducing baffles : cells:59397  faces:207187  points:74283
Cells per refinement level:
    0	2
    1	529
    2	2372
    3	5631
    4	33752
    5	17111

Introducing baffles to block off problem cells
----------------------------------------------

markFacesOnProblemCells : marked 0 additional internal faces to be converted into baffles.
Analyzed problem cells in = 0.1 s


Introducing baffles to delete problem cells.

Created baffles in = 0 s


After introducing baffles : cells:59397  faces:207187  points:74283
Cells per refinement level:
    0	2
    1	529
    2	2372
    3	5631
    4	33752
    5	17111
Setting cellZones according to locationsInMesh:
Location : (0.05 0.05 1.5)
    cellZone : none

For cellZone none found point (0.05 0.05 1.5) in global region 0 out of 1 regions.
Edge intersection testing:
    Number of edges             : 207187
    Number of edges to retest   : 90405
    Number of intersected edges : 29314

Remove unreachable sections of mesh
-----------------------------------

Split mesh in = 0.26 s


After subsetting : cells:59397  faces:207187  points:74283
Cells per refinement level:
    0	2
    1	529
    2	2372
    3	5631
    4	33752
    5	17111

Merge free-standing baffles
---------------------------

freeStandingBaffles : detected 43 free-standing baffles out of 14347

freeStandingBaffles : detected 1 planar (within 60 degrees) free-standing baffles out of 43

Detected free-standing baffles : 1
Edge intersection testing:
    Number of edges             : 207186
    Number of edges to retest   : 1
    Number of intersected edges : 29313

Introducing baffles to block off problem cells
----------------------------------------------

markFacesOnProblemCells : marked 0 additional internal faces to be converted into baffles.
Analyzed problem cells in = 0.24 s


Introducing baffles to delete problem cells.

Created baffles in = 0 s


After introducing baffles : cells:59397  faces:207186  points:74283
Cells per refinement level:
    0	2
    1	529
    2	2372
    3	5631
    4	33752
    5	17111

Remove unreachable sections of mesh
-----------------------------------

Merged free-standing baffles in = 0.03 s


dupNonManifoldPoints : Found : 15188 non-manifold points (out of 74283)
Edge intersection testing:
    Number of edges             : 207186
    Number of edges to retest   : 0
    Number of intersected edges : 29313
Detected unsplittable baffles : 0

Merge refined boundary faces
----------------------------

Merging 659 sets of faces.

Edge intersection testing:
    Number of edges             : 205607
    Number of edges to retest   : 4538
    Number of intersected edges : 27734

Undo iteration 0
----------------
Checking faces in error :
    non-orthogonality > 65  degrees                        : 0
    faces with face pyramid volume < 1e-13                 : 0
    faces with face-decomposition tet quality < 1e-30      : 0
    faces with concavity > 80  degrees                     : 0
    faces with skewness > 4   (internal) or 20  (boundary) : 0
    faces with interpolation weights (0..1)  < 0.02        : 0
    faces with volume ratio of neighbour cells < 0.01      : 0
    faces with face twist < 0.02                           : 0
    faces on cells with determinant < 0.001                : 0

Merging all points on surface that
- are used by only two boundary faces and
- make an angle with a cosine of more than 0.707107.

Removing 1108 straight edge points ...

Edge intersection testing:
    Number of edges             : 205607
    Number of edges to retest   : 5459
    Number of intersected edges : 27734

Undo iteration 0
----------------
Checking faces in error :
    non-orthogonality > 65  degrees                        : 0
    faces with face pyramid volume < 1e-13                 : 0
    faces with face-decomposition tet quality < 1e-30      : 0
    faces with concavity > 80  degrees                     : 0
    faces with skewness > 4   (internal) or 20  (boundary) : 0
    faces with interpolation weights (0..1)  < 0.02        : 0
    faces with volume ratio of neighbour cells < 0.01      : 0
    faces with face twist < 0.02                           : 0
    faces on cells with determinant < 0.001                : 0
Refined mesh : cells:59397  faces:205607  points:87996
Cells per refinement level:
    0	2
    1	529
    2	2372
    3	5631
    4	33752
    5	17111
Writing mesh to time constant
Wrote mesh in = 0.13 s.
Mesh refined in = 4.82 s.

Morphing phase
--------------

Duplicating 0 points on faceZones of type boundary
Snapping to features in 10 iterations ...
Constructing mesh displacer ...
Using mesh parameters 
{
    maxNonOrtho     65;
    maxBoundarySkewness 20;
    maxInternalSkewness 4;
    maxConcave      80;
    minFlatness     0.5;
    minVol          1e-13;
    minTetQuality   1e-30;
    minArea         -1;
    minTwist        0.02;
    minDeterminant  0.001;
    minFaceWeight   0.02;
    minVolRatio     0.01;
    minTriangleTwist -1;
    nSmoothScale    4;
    errorReduction  0.75;
}


Checking initial mesh ...
Checking faces in error :
    non-orthogonality > 65  degrees                        : 0
    faces with face pyramid volume < 1e-13                 : 0
    faces with face-decomposition tet quality < 1e-30      : 0
    faces with concavity > 80  degrees                     : 0
    faces with skewness > 4   (internal) or 20  (boundary) : 0
    faces with interpolation weights (0..1)  < 0.02        : 0
    faces with volume ratio of neighbour cells < 0.01      : 0
    faces with face twist < 0.02                           : 0
    faces on cells with determinant < 0.001                : 0
Detected 0 illegal faces (concave, zero area or negative cell pyramid volume)
Checked initial mesh in = 1.01 s


Smoothing patch points ...
Smoothing iteration 0
Found 27358 non-manifold point(s).

Scaling iteration 0
Moving mesh using displacement scaling : min:1  max:1
Checking faces in error :
    non-orthogonality > 65  degrees                        : 0
    faces with face pyramid volume < 1e-13                 : 0
    faces with face-decomposition tet quality < 1e-30      : 26
    faces with concavity > 80  degrees                     : 77
    faces with skewness > 4   (internal) or 20  (boundary) : 0
    faces with interpolation weights (0..1)  < 0.02        : 0
    faces with volume ratio of neighbour cells < 0.01      : 0
    faces with face twist < 0.02                           : 2
    faces on cells with determinant < 0.001                : 0

Scaling iteration 1
Moving mesh using displacement scaling : min:0.75  max:1
Checking faces in error :
    non-orthogonality > 65  degrees                        : 0
    faces with face pyramid volume < 1e-13                 : 0
    faces with face-decomposition tet quality < 1e-30      : 0
    faces with concavity > 80  degrees                     : 27
    faces with skewness > 4   (internal) or 20  (boundary) : 0
    faces with interpolation weights (0..1)  < 0.02        : 0
    faces with volume ratio of neighbour cells < 0.01      : 0
    faces with face twist < 0.02                           : 2
    faces on cells with determinant < 0.001                : 0

Scaling iteration 2
Moving mesh using displacement scaling : min:0.5625  max:1
Checking faces in error :
    non-orthogonality > 65  degrees                        : 0
    faces with face pyramid volume < 1e-13                 : 0
    faces with face-decomposition tet quality < 1e-30      : 0
    faces with concavity > 80  degrees                     : 0
    faces with skewness > 4   (internal) or 20  (boundary) : 0
    faces with interpolation weights (0..1)  < 0.02        : 0
    faces with volume ratio of neighbour cells < 0.01      : 0
    faces with face twist < 0.02                           : 0
    faces on cells with determinant < 0.001                : 0
Successfully moved mesh

Smoothing iteration 1
Found 0 non-manifold point(s).

Scaling iteration 0
Moving mesh using displacement scaling : min:1  max:1
Checking faces in error :
    non-orthogonality > 65  degrees                        : 0
    faces with face pyramid volume < 1e-13                 : 0
    faces with face-decomposition tet quality < 1e-30      : 0
    faces with concavity > 80  degrees                     : 10
    faces with skewness > 4   (internal) or 20  (boundary) : 0
    faces with interpolation weights (0..1)  < 0.02        : 0
    faces with volume ratio of neighbour cells < 0.01      : 0
    faces with face twist < 0.02                           : 0
    faces on cells with determinant < 0.001                : 0

Scaling iteration 1
Moving mesh using displacement scaling : min:0.75  max:1
Checking faces in error :
    non-orthogonality > 65  degrees                        : 0
    faces with face pyramid volume < 1e-13                 : 0
    faces with face-decomposition tet quality < 1e-30      : 0
    faces with concavity > 80  degrees                     : 4
    faces with skewness > 4   (internal) or 20  (boundary) : 0
    faces with interpolation weights (0..1)  < 0.02        : 0
    faces with volume ratio of neighbour cells < 0.01      : 0
    faces with face twist < 0.02                           : 0
    faces on cells with determinant < 0.001                : 0

Scaling iteration 2
Moving mesh using displacement scaling : min:0.5625  max:1
Checking faces in error :
    non-orthogonality > 65  degrees                        : 0
    faces with face pyramid volume < 1e-13                 : 0
    faces with face-decomposition tet quality < 1e-30      : 0
    faces with concavity > 80  degrees                     : 0
    faces with skewness > 4   (internal) or 20  (boundary) : 0
    faces with interpolation weights (0..1)  < 0.02        : 0
    faces with volume ratio of neighbour cells < 0.01      : 0
    faces with face twist < 0.02                           : 0
    faces on cells with determinant < 0.001                : 0
Successfully moved mesh

Smoothing iteration 2
Found 0 non-manifold point(s).

Scaling iteration 0
Moving mesh using displacement scaling : min:1  max:1
Checking faces in error :
    non-orthogonality > 65  degrees                        : 10
    faces with face pyramid volume < 1e-13                 : 0
    faces with face-decomposition tet quality < 1e-30      : 6
    faces with concavity > 80  degrees                     : 12
    faces with skewness > 4   (internal) or 20  (boundary) : 0
    faces with interpolation weights (0..1)  < 0.02        : 0
    faces with volume ratio of neighbour cells < 0.01      : 0
    faces with face twist < 0.02                           : 0
    faces on cells with determinant < 0.001                : 0

Scaling iteration 1
Moving mesh using displacement scaling : min:0.75  max:1
Checking faces in error :
    non-orthogonality > 65  degrees                        : 2
    faces with face pyramid volume < 1e-13                 : 0
    faces with face-decomposition tet quality < 1e-30      : 4
    faces with concavity > 80  degrees                     : 12
    faces with skewness > 4   (internal) or 20  (boundary) : 0
    faces with interpolation weights (0..1)  < 0.02        : 0
    faces with volume ratio of neighbour cells < 0.01      : 0
    faces with face twist < 0.02                           : 0
    faces on cells with determinant < 0.001                : 0

Scaling iteration 2
Moving mesh using displacement scaling : min:0.5625  max:1
Checking faces in error :
    non-orthogonality > 65  degrees                        : 2
    faces with face pyramid volume < 1e-13                 : 0
    faces with face-decomposition tet quality < 1e-30      : 0
    faces with concavity > 80  degrees                     : 8
    faces with skewness > 4   (internal) or 20  (boundary) : 0
    faces with interpolation weights (0..1)  < 0.02        : 0
    faces with volume ratio of neighbour cells < 0.01      : 0
    faces with face twist < 0.02                           : 0
    faces on cells with determinant < 0.001                : 0

Scaling iteration 3
Moving mesh using displacement scaling : min:0.421875  max:1
Checking faces in error :
    non-orthogonality > 65  degrees                        : 0
    faces with face pyramid volume < 1e-13                 : 0
    faces with face-decomposition tet quality < 1e-30      : 0
    faces with concavity > 80  degrees                     : 6
    faces with skewness > 4   (internal) or 20  (boundary) : 0
    faces with interpolation weights (0..1)  < 0.02        : 0
    faces with volume ratio of neighbour cells < 0.01      : 0
    faces with face twist < 0.02                           : 0
    faces on cells with determinant < 0.001                : 0

Scaling iteration 4
Moving mesh using displacement scaling : min:0.316406  max:1
Checking faces in error :
    non-orthogonality > 65  degrees                        : 0
    faces with face pyramid volume < 1e-13                 : 0
    faces with face-decomposition tet quality < 1e-30      : 0
    faces with concavity > 80  degrees                     : 6
    faces with skewness > 4   (internal) or 20  (boundary) : 0
    faces with interpolation weights (0..1)  < 0.02        : 0
    faces with volume ratio of neighbour cells < 0.01      : 0
    faces with face twist < 0.02                           : 0
    faces on cells with determinant < 0.001                : 0

Scaling iteration 5
Displacement scaling for error reduction set to 0.
Moving mesh using displacement scaling : min:0.237305  max:1
Checking faces in error :
    non-orthogonality > 65  degrees                        : 0
    faces with face pyramid volume < 1e-13                 : 0
    faces with face-decomposition tet quality < 1e-30      : 0
    faces with concavity > 80  degrees                     : 4
    faces with skewness > 4   (internal) or 20  (boundary) : 0
    faces with interpolation weights (0..1)  < 0.02        : 0
    faces with volume ratio of neighbour cells < 0.01      : 0
    faces with face twist < 0.02                           : 0
    faces on cells with determinant < 0.001                : 0

Scaling iteration 6
Moving mesh using displacement scaling : min:0  max:1
Checking faces in error :
    non-orthogonality > 65  degrees                        : 0
    faces with face pyramid volume < 1e-13                 : 0
    faces with face-decomposition tet quality < 1e-30      : 0
    faces with concavity > 80  degrees                     : 0
    faces with skewness > 4   (internal) or 20  (boundary) : 0
    faces with interpolation weights (0..1)  < 0.02        : 0
    faces with volume ratio of neighbour cells < 0.01      : 0
    faces with face twist < 0.02                           : 0
    faces on cells with determinant < 0.001                : 0
Successfully moved mesh

Patch points smoothed in = 1.14 s



Morph iteration 0
-----------------
Calculating patchDisplacement as distance to nearest surface point ...
    non-zone points : attract to nearest of all non-zone surfaces
    zone points     : attract to zone surface only

Wanted displacement : average:1.09989 min:0.0008314 max:5.31216
Calculated surface displacement in = 0.08 s


Detecting near surfaces ...
Overriding nearest with intersection of close gaps at 0 out of 29790 points.
Overriding displacement on features :
   implicit features    : false
   explicit features    : true
   multi-patch features : false

Detected 2 baffle edges out of 58491 edges.
Baffle points     : 3 of which attracted to :
    feature point : 0
    feature edge  : 3
    rest          : 0

Initially selected 2668 mesh points out of 29790 for reverse attraction.
Selected 8332 mesh points out of 29790 for reverse attraction.
Stringing feature edges : changed 156 points
Stringing feature edges : changed 9 points
Stringing feature edges : changed 3 points
Stringing feature edges : changed 5 points
Stringing feature edges : changed 5 points
Stringing feature edges : changed 3 points
Stringing feature edges : changed 2 points
Stringing feature edges : changed 2 points
Stringing feature edges : changed 2 points
Stringing feature edges : changed 3 points
Stringing feature edges : changed 0 points
Attraction:
    linear   : max:(-0.0463341 -5.31196 5.001e-17) avg:(-5.19326e-05 0.00681526 0.00343278)
    feature  : max:(-0.33285 -1.38683 0.932078) avg:(0.000655533 -0.00287167 2.45986e-05)
Feature analysis : total master points :29790 of which attracted to :
    feature point   : 0
    feature edge    : 1408
    nearest surface : 0
    rest            : 28382

--> FOAM Warning : Displacement (-0.00109816 0.00527504 -0.00528013) at mesh point 14380 coord (-4.96374 59.351 -49.4529) points through the surrounding patch faces
Smoothing displacement ...
Iteration 0
Iteration 10
Iteration 20
Displacement smoothed in = 0.3 s


Moving mesh ...

Iteration 0
Moving mesh using displacement scaling : min:1  max:1
Checking faces in error :
    non-orthogonality > 65  degrees                        : 0
    faces with face pyramid volume < 1e-13                 : 0
    faces with face-decomposition tet quality < 1e-30      : 0
    faces with concavity > 80  degrees                     : 9
    faces with skewness > 4   (internal) or 20  (boundary) : 0
    faces with interpolation weights (0..1)  < 0.02        : 0
    faces with volume ratio of neighbour cells < 0.01      : 0
    faces with face twist < 0.02                           : 0
    faces on cells with determinant < 0.001                : 0

Iteration 1
Moving mesh using displacement scaling : min:0.75  max:1
Checking faces in error :
    non-orthogonality > 65  degrees                        : 0
    faces with face pyramid volume < 1e-13                 : 0
    faces with face-decomposition tet quality < 1e-30      : 0
    faces with concavity > 80  degrees                     : 8
    faces with skewness > 4   (internal) or 20  (boundary) : 0
    faces with interpolation weights (0..1)  < 0.02        : 0
    faces with volume ratio of neighbour cells < 0.01      : 0
    faces with face twist < 0.02                           : 0
    faces on cells with determinant < 0.001                : 0

Iteration 2
Moving mesh using displacement scaling : min:0.5625  max:1
Checking faces in error :
    non-orthogonality > 65  degrees                        : 0
    faces with face pyramid volume < 1e-13                 : 0
    faces with face-decomposition tet quality < 1e-30      : 0
    faces with concavity > 80  degrees                     : 8
    faces with skewness > 4   (internal) or 20  (boundary) : 0
    faces with interpolation weights (0..1)  < 0.02        : 0
    faces with volume ratio of neighbour cells < 0.01      : 0
    faces with face twist < 0.02                           : 0
    faces on cells with determinant < 0.001                : 0

Iteration 3
Moving mesh using displacement scaling : min:0.421875  max:1
Checking faces in error :
    non-orthogonality > 65  degrees                        : 0
    faces with face pyramid volume < 1e-13                 : 0
    faces with face-decomposition tet quality < 1e-30      : 0
    faces with concavity > 80  degrees                     : 8
    faces with skewness > 4   (internal) or 20  (boundary) : 0
    faces with interpolation weights (0..1)  < 0.02        : 0
    faces with volume ratio of neighbour cells < 0.01      : 0
    faces with face twist < 0.02                           : 0
    faces on cells with determinant < 0.001                : 0

Iteration 4
Moving mesh using displacement scaling : min:0.316406  max:1
Checking faces in error :
    non-orthogonality > 65  degrees                        : 0
    faces with face pyramid volume < 1e-13                 : 0
    faces with face-decomposition tet quality < 1e-30      : 0
    faces with concavity > 80  degrees                     : 7
    faces with skewness > 4   (internal) or 20  (boundary) : 0
    faces with interpolation weights (0..1)  < 0.02        : 0
    faces with volume ratio of neighbour cells < 0.01      : 0
    faces with face twist < 0.02                           : 0
    faces on cells with determinant < 0.001                : 0

Iteration 5
Displacement scaling for error reduction set to 0.
Moving mesh using displacement scaling : min:0.237305  max:1
Checking faces in error :
    non-orthogonality > 65  degrees                        : 0
    faces with face pyramid volume < 1e-13                 : 0
    faces with face-decomposition tet quality < 1e-30      : 0
    faces with concavity > 80  degrees                     : 7
    faces with skewness > 4   (internal) or 20  (boundary) : 0
    faces with interpolation weights (0..1)  < 0.02        : 0
    faces with volume ratio of neighbour cells < 0.01      : 0
    faces with face twist < 0.02                           : 0
    faces on cells with determinant < 0.001                : 0

Iteration 6
Moving mesh using displacement scaling : min:0  max:1
Checking faces in error :
    non-orthogonality > 65  degrees                        : 0
    faces with face pyramid volume < 1e-13                 : 0
    faces with face-decomposition tet quality < 1e-30      : 0
    faces with concavity > 80  degrees                     : 0
    faces with skewness > 4   (internal) or 20  (boundary) : 0
    faces with interpolation weights (0..1)  < 0.02        : 0
    faces with volume ratio of neighbour cells < 0.01      : 0
    faces with face twist < 0.02                           : 0
    faces on cells with determinant < 0.001                : 0
Successfully moved mesh
Moved mesh in = 0.48 s



Morph iteration 1
-----------------
Calculating patchDisplacement as distance to nearest surface point ...
    non-zone points : attract to nearest of all non-zone surfaces
    zone points     : attract to zone surface only

Wanted displacement : average:1.0133 min:6.62467e-05 max:4.97209
Calculated surface displacement in = 0.08 s


Detecting near surfaces ...
Overriding nearest with intersection of close gaps at 0 out of 29790 points.
Overriding displacement on features :
   implicit features    : false
   explicit features    : true
   multi-patch features : false

Detected 2 baffle edges out of 58491 edges.
Baffle points     : 3 of which attracted to :
    feature point : 0
    feature edge  : 3
    rest          : 0

Initially selected 2664 mesh points out of 29790 for reverse attraction.
Selected 8342 mesh points out of 29790 for reverse attraction.
Stringing feature edges : changed 140 points
Stringing feature edges : changed 9 points
Stringing feature edges : changed 3 points
Stringing feature edges : changed 5 points
Stringing feature edges : changed 5 points
Stringing feature edges : changed 3 points
Stringing feature edges : changed 2 points
Stringing feature edges : changed 2 points
Stringing feature edges : changed 2 points
Stringing feature edges : changed 3 points
Stringing feature edges : changed 0 points
Attraction:
    linear   : max:(-0.0433679 -4.9719 -8.15049e-17) avg:(0.000408212 0.00576498 0.00304596)
    feature  : max:(-0.301484 -1.3772 0.844619) avg:(0.000659913 -0.00272113 -3.49088e-05)
Feature analysis : total master points :29790 of which attracted to :
    feature point   : 0
    feature edge    : 1409
    nearest surface : 0
    rest            : 28381

--> FOAM Warning : Displacement (-0.00194818 0.0229716 -0.0173018) at mesh point 14380 coord (-4.96484 59.3563 -49.4582) points through the surrounding patch faces
Smoothing displacement ...
Iteration 0
Iteration 10
Iteration 20
Displacement smoothed in = 0.29 s


Moving mesh ...

Iteration 0
Moving mesh using displacement scaling : min:1  max:1
Checking faces in error :
    non-orthogonality > 65  degrees                        : 0
    faces with face pyramid volume < 1e-13                 : 0
    faces with face-decomposition tet quality < 1e-30      : 0
    faces with concavity > 80  degrees                     : 14
    faces with skewness > 4   (internal) or 20  (boundary) : 0
    faces with interpolation weights (0..1)  < 0.02        : 0
    faces with volume ratio of neighbour cells < 0.01      : 0
    faces with face twist < 0.02                           : 0
    faces on cells with determinant < 0.001                : 0

Iteration 1
Moving mesh using displacement scaling : min:0.75  max:1
Checking faces in error :
    non-orthogonality > 65  degrees                        : 0
    faces with face pyramid volume < 1e-13                 : 0
    faces with face-decomposition tet quality < 1e-30      : 0
    faces with concavity > 80  degrees                     : 14
    faces with skewness > 4   (internal) or 20  (boundary) : 0
    faces with interpolation weights (0..1)  < 0.02        : 0
    faces with volume ratio of neighbour cells < 0.01      : 0
    faces with face twist < 0.02                           : 0
    faces on cells with determinant < 0.001                : 0

Iteration 2
Moving mesh using displacement scaling : min:0.5625  max:1
Checking faces in error :
    non-orthogonality > 65  degrees                        : 0
    faces with face pyramid volume < 1e-13                 : 0
    faces with face-decomposition tet quality < 1e-30      : 0
    faces with concavity > 80  degrees                     : 14
    faces with skewness > 4   (internal) or 20  (boundary) : 0
    faces with interpolation weights (0..1)  < 0.02        : 0
    faces with volume ratio of neighbour cells < 0.01      : 0
    faces with face twist < 0.02                           : 0
    faces on cells with determinant < 0.001                : 0

Iteration 3
Moving mesh using displacement scaling : min:0.421875  max:1
Checking faces in error :
    non-orthogonality > 65  degrees                        : 0
    faces with face pyramid volume < 1e-13                 : 0
    faces with face-decomposition tet quality < 1e-30      : 0
    faces with concavity > 80  degrees                     : 14
    faces with skewness > 4   (internal) or 20  (boundary) : 0
    faces with interpolation weights (0..1)  < 0.02        : 0
    faces with volume ratio of neighbour cells < 0.01      : 0
    faces with face twist < 0.02                           : 0
    faces on cells with determinant < 0.001                : 0

Iteration 4
Moving mesh using displacement scaling : min:0.316406  max:1
Checking faces in error :
    non-orthogonality > 65  degrees                        : 0
    faces with face pyramid volume < 1e-13                 : 0
    faces with face-decomposition tet quality < 1e-30      : 0
    faces with concavity > 80  degrees                     : 8
    faces with skewness > 4   (internal) or 20  (boundary) : 0
    faces with interpolation weights (0..1)  < 0.02        : 0
    faces with volume ratio of neighbour cells < 0.01      : 0
    faces with face twist < 0.02                           : 0
    faces on cells with determinant < 0.001                : 0

Iteration 5
Displacement scaling for error reduction set to 0.
Moving mesh using displacement scaling : min:0.237305  max:1
Checking faces in error :
    non-orthogonality > 65  degrees                        : 0
    faces with face pyramid volume < 1e-13                 : 0
    faces with face-decomposition tet quality < 1e-30      : 0
    faces with concavity > 80  degrees                     : 7
    faces with skewness > 4   (internal) or 20  (boundary) : 0
    faces with interpolation weights (0..1)  < 0.02        : 0
    faces with volume ratio of neighbour cells < 0.01      : 0
    faces with face twist < 0.02                           : 0
    faces on cells with determinant < 0.001                : 0

Iteration 6
Moving mesh using displacement scaling : min:0  max:1
Checking faces in error :
    non-orthogonality > 65  degrees                        : 0
    faces with face pyramid volume < 1e-13                 : 0
    faces with face-decomposition tet quality < 1e-30      : 0
    faces with concavity > 80  degrees                     : 0
    faces with skewness > 4   (internal) or 20  (boundary) : 0
    faces with interpolation weights (0..1)  < 0.02        : 0
    faces with volume ratio of neighbour cells < 0.01      : 0
    faces with face twist < 0.02                           : 0
    faces on cells with determinant < 0.001                : 0
Successfully moved mesh
Moved mesh in = 0.45 s



Morph iteration 2
-----------------
Calculating patchDisplacement as distance to nearest surface point ...
    non-zone points : attract to nearest of all non-zone surfaces
    zone points     : attract to zone surface only

Wanted displacement : average:0.850902 min:0.00087359 max:4.28919
Calculated surface displacement in = 0.08 s


Detecting near surfaces ...
Overriding nearest with intersection of close gaps at 0 out of 29790 points.
Overriding displacement on features :
   implicit features    : false
   explicit features    : true
   multi-patch features : false

Detected 2 baffle edges out of 58491 edges.
Baffle points     : 3 of which attracted to :
    feature point : 0
    feature edge  : 3
    rest          : 0

Initially selected 2664 mesh points out of 29790 for reverse attraction.
Selected 8361 mesh points out of 29790 for reverse attraction.
Stringing feature edges : changed 133 points
Stringing feature edges : changed 7 points
Stringing feature edges : changed 4 points
Stringing feature edges : changed 6 points
Stringing feature edges : changed 5 points
Stringing feature edges : changed 3 points
Stringing feature edges : changed 3 points
Stringing feature edges : changed 2 points
Stringing feature edges : changed 3 points
Stringing feature edges : changed 1 points
Stringing feature edges : changed 0 points
Attraction:
    linear   : max:(-0.0374115 -4.28903 -2.4503e-17) avg:(0.00051502 0.00386668 0.00268173)
    feature  : max:(-0.244533 -1.32889 0.685815) avg:(0.000555528 -0.00268166 -0.000151455)
Feature analysis : total master points :29790 of which attracted to :
    feature point   : 0
    feature edge    : 1414
    nearest surface : 0
    rest            : 28376

--> FOAM Warning : Displacement (-0.00229582 0.0512869 -0.0344819) at mesh point 14380 coord (-4.96679 59.3793 -49.4755) points through the surrounding patch faces
Smoothing displacement ...
Iteration 0
Iteration 10
Iteration 20
Displacement smoothed in = 0.29 s


Moving mesh ...

Iteration 0
Moving mesh using displacement scaling : min:1  max:1
Checking faces in error :
    non-orthogonality > 65  degrees                        : 0
    faces with face pyramid volume < 1e-13                 : 0
    faces with face-decomposition tet quality < 1e-30      : 0
    faces with concavity > 80  degrees                     : 20
    faces with skewness > 4   (internal) or 20  (boundary) : 0
    faces with interpolation weights (0..1)  < 0.02        : 0
    faces with volume ratio of neighbour cells < 0.01      : 0
    faces with face twist < 0.02                           : 0
    faces on cells with determinant < 0.001                : 0

Iteration 1
Moving mesh using displacement scaling : min:0.75  max:1
Checking faces in error :
    non-orthogonality > 65  degrees                        : 0
    faces with face pyramid volume < 1e-13                 : 0
    faces with face-decomposition tet quality < 1e-30      : 0
    faces with concavity > 80  degrees                     : 20
    faces with skewness > 4   (internal) or 20  (boundary) : 0
    faces with interpolation weights (0..1)  < 0.02        : 0
    faces with volume ratio of neighbour cells < 0.01      : 0
    faces with face twist < 0.02                           : 0
    faces on cells with determinant < 0.001                : 0

Iteration 2
Moving mesh using displacement scaling : min:0.5625  max:1
Checking faces in error :
    non-orthogonality > 65  degrees                        : 0
    faces with face pyramid volume < 1e-13                 : 0
    faces with face-decomposition tet quality < 1e-30      : 0
    faces with concavity > 80  degrees                     : 20
    faces with skewness > 4   (internal) or 20  (boundary) : 0
    faces with interpolation weights (0..1)  < 0.02        : 0
    faces with volume ratio of neighbour cells < 0.01      : 0
    faces with face twist < 0.02                           : 0
    faces on cells with determinant < 0.001                : 0

Iteration 3
Moving mesh using displacement scaling : min:0.421875  max:1
Checking faces in error :
    non-orthogonality > 65  degrees                        : 0
    faces with face pyramid volume < 1e-13                 : 0
    faces with face-decomposition tet quality < 1e-30      : 0
    faces with concavity > 80  degrees                     : 16
    faces with skewness > 4   (internal) or 20  (boundary) : 0
    faces with interpolation weights (0..1)  < 0.02        : 0
    faces with volume ratio of neighbour cells < 0.01      : 0
    faces with face twist < 0.02                           : 0
    faces on cells with determinant < 0.001                : 0

Iteration 4
Moving mesh using displacement scaling : min:0.316406  max:1
Checking faces in error :
    non-orthogonality > 65  degrees                        : 0
    faces with face pyramid volume < 1e-13                 : 0
    faces with face-decomposition tet quality < 1e-30      : 0
    faces with concavity > 80  degrees                     : 16
    faces with skewness > 4   (internal) or 20  (boundary) : 0
    faces with interpolation weights (0..1)  < 0.02        : 0
    faces with volume ratio of neighbour cells < 0.01      : 0
    faces with face twist < 0.02                           : 0
    faces on cells with determinant < 0.001                : 0

Iteration 5
Displacement scaling for error reduction set to 0.
Moving mesh using displacement scaling : min:0.237305  max:1
Checking faces in error :
    non-orthogonality > 65  degrees                        : 0
    faces with face pyramid volume < 1e-13                 : 0
    faces with face-decomposition tet quality < 1e-30      : 0
    faces with concavity > 80  degrees                     : 16
    faces with skewness > 4   (internal) or 20  (boundary) : 0
    faces with interpolation weights (0..1)  < 0.02        : 0
    faces with volume ratio of neighbour cells < 0.01      : 0
    faces with face twist < 0.02                           : 0
    faces on cells with determinant < 0.001                : 0

Iteration 6
Moving mesh using displacement scaling : min:0  max:1
Checking faces in error :
    non-orthogonality > 65  degrees                        : 0
    faces with face pyramid volume < 1e-13                 : 0
    faces with face-decomposition tet quality < 1e-30      : 0
    faces with concavity > 80  degrees                     : 0
    faces with skewness > 4   (internal) or 20  (boundary) : 0
    faces with interpolation weights (0..1)  < 0.02        : 0
    faces with volume ratio of neighbour cells < 0.01      : 0
    faces with face twist < 0.02                           : 0
    faces on cells with determinant < 0.001                : 0
Successfully moved mesh
Moved mesh in = 0.49 s



Morph iteration 3
-----------------
Calculating patchDisplacement as distance to nearest surface point ...
    non-zone points : attract to nearest of all non-zone surfaces
    zone points     : attract to zone surface only

Wanted displacement : average:0.644228 min:0.000236373 max:3.35461
Calculated surface displacement in = 0.07 s


Detecting near surfaces ...
Overriding nearest with intersection of close gaps at 0 out of 29790 points.
Overriding displacement on features :
   implicit features    : false
   explicit features    : true
   multi-patch features : false

Detected 4 baffle edges out of 58491 edges.
Baffle points     : 5 of which attracted to :
    feature point : 0
    feature edge  : 5
    rest          : 0

Initially selected 2665 mesh points out of 29790 for reverse attraction.
Selected 8390 mesh points out of 29790 for reverse attraction.
Stringing feature edges : changed 138 points
Stringing feature edges : changed 8 points
Stringing feature edges : changed 6 points
Stringing feature edges : changed 10 points
Stringing feature edges : changed 12 points
Stringing feature edges : changed 9 points
Stringing feature edges : changed 14 points
Stringing feature edges : changed 5 points
Stringing feature edges : changed 4 points
Stringing feature edges : changed 6 points
Stringing feature edges : changed 3 points
Stringing feature edges : changed 0 points
Attraction:
    linear   : max:(-0.0292598 -3.35449 1.50054e-16) avg:(-0.000335726 0.00112477 0.00172746)
    feature  : max:(-0.978488 0.249546 -0.998102) avg:(-0.000450135 -0.00209342 0.000243072)
Feature analysis : total master points :29790 of which attracted to :
    feature point   : 0
    feature edge    : 1467
    nearest surface : 0
    rest            : 28323

--> FOAM Warning : Displacement (-0.0718538 -0.175044 0.0382143) at mesh point 9627 coord (-7.13452 62.1275 -47.1525) points through the surrounding patch faces
Smoothing displacement ...
Iteration 0
Iteration 10
Iteration 20
Displacement smoothed in = 0.29 s


Moving mesh ...

Iteration 0
Moving mesh using displacement scaling : min:1  max:1
Checking faces in error :
    non-orthogonality > 65  degrees                        : 8
    faces with face pyramid volume < 1e-13                 : 0
    faces with face-decomposition tet quality < 1e-30      : 4
    faces with concavity > 80  degrees                     : 16
    faces with skewness > 4   (internal) or 20  (boundary) : 0
    faces with interpolation weights (0..1)  < 0.02        : 0
    faces with volume ratio of neighbour cells < 0.01      : 0
    faces with face twist < 0.02                           : 4
    faces on cells with determinant < 0.001                : 0

Iteration 1
Moving mesh using displacement scaling : min:0.75  max:1
Checking faces in error :
    non-orthogonality > 65  degrees                        : 8
    faces with face pyramid volume < 1e-13                 : 0
    faces with face-decomposition tet quality < 1e-30      : 2
    faces with concavity > 80  degrees                     : 17
    faces with skewness > 4   (internal) or 20  (boundary) : 0
    faces with interpolation weights (0..1)  < 0.02        : 0
    faces with volume ratio of neighbour cells < 0.01      : 0
    faces with face twist < 0.02                           : 3
    faces on cells with determinant < 0.001                : 0

Iteration 2
Moving mesh using displacement scaling : min:0.5625  max:1
Checking faces in error :
    non-orthogonality > 65  degrees                        : 8
    faces with face pyramid volume < 1e-13                 : 0
    faces with face-decomposition tet quality < 1e-30      : 2
    faces with concavity > 80  degrees                     : 16
    faces with skewness > 4   (internal) or 20  (boundary) : 0
    faces with interpolation weights (0..1)  < 0.02        : 0
    faces with volume ratio of neighbour cells < 0.01      : 0
    faces with face twist < 0.02                           : 2
    faces on cells with determinant < 0.001                : 0

Iteration 3
Moving mesh using displacement scaling : min:0.421875  max:1
Checking faces in error :
    non-orthogonality > 65  degrees                        : 8
    faces with face pyramid volume < 1e-13                 : 0
    faces with face-decomposition tet quality < 1e-30      : 2
    faces with concavity > 80  degrees                     : 16
    faces with skewness > 4   (internal) or 20  (boundary) : 0
    faces with interpolation weights (0..1)  < 0.02        : 0
    faces with volume ratio of neighbour cells < 0.01      : 0
    faces with face twist < 0.02                           : 2
    faces on cells with determinant < 0.001                : 0

Iteration 4
Moving mesh using displacement scaling : min:0.316406  max:1
Checking faces in error :
    non-orthogonality > 65  degrees                        : 8
    faces with face pyramid volume < 1e-13                 : 0
    faces with face-decomposition tet quality < 1e-30      : 0
    faces with concavity > 80  degrees                     : 16
    faces with skewness > 4   (internal) or 20  (boundary) : 0
    faces with interpolation weights (0..1)  < 0.02        : 0
    faces with volume ratio of neighbour cells < 0.01      : 0
    faces with face twist < 0.02                           : 4
    faces on cells with determinant < 0.001                : 0

Iteration 5
Displacement scaling for error reduction set to 0.
Moving mesh using displacement scaling : min:0.237305  max:1
Checking faces in error :
    non-orthogonality > 65  degrees                        : 8
    faces with face pyramid volume < 1e-13                 : 0
    faces with face-decomposition tet quality < 1e-30      : 0
    faces with concavity > 80  degrees                     : 18
    faces with skewness > 4   (internal) or 20  (boundary) : 0
    faces with interpolation weights (0..1)  < 0.02        : 0
    faces with volume ratio of neighbour cells < 0.01      : 0
    faces with face twist < 0.02                           : 4
    faces on cells with determinant < 0.001                : 0

Iteration 6
Moving mesh using displacement scaling : min:0  max:1
Checking faces in error :
    non-orthogonality > 65  degrees                        : 0
    faces with face pyramid volume < 1e-13                 : 0
    faces with face-decomposition tet quality < 1e-30      : 0
    faces with concavity > 80  degrees                     : 0
    faces with skewness > 4   (internal) or 20  (boundary) : 0
    faces with interpolation weights (0..1)  < 0.02        : 0
    faces with volume ratio of neighbour cells < 0.01      : 0
    faces with face twist < 0.02                           : 0
    faces on cells with determinant < 0.001                : 0
Successfully moved mesh
Moved mesh in = 0.52 s



Morph iteration 4
-----------------
Calculating patchDisplacement as distance to nearest surface point ...
    non-zone points : attract to nearest of all non-zone surfaces
    zone points     : attract to zone surface only

Wanted displacement : average:0.435315 min:1.01058e-05 max:3.00892
Calculated surface displacement in = 0.07 s


Detecting near surfaces ...
Overriding nearest with intersection of close gaps at 0 out of 29790 points.
Overriding displacement on features :
   implicit features    : false
   explicit features    : true
   multi-patch features : false

Detected 10 baffle edges out of 58491 edges.
Baffle points     : 12 of which attracted to :
    feature point : 0
    feature edge  : 12
    rest          : 0

Initially selected 2663 mesh points out of 29790 for reverse attraction.
Selected 8406 mesh points out of 29790 for reverse attraction.
Stringing feature edges : changed 116 points
Stringing feature edges : changed 8 points
Stringing feature edges : changed 7 points
Stringing feature edges : changed 14 points
Stringing feature edges : changed 10 points
Stringing feature edges : changed 9 points
Stringing feature edges : changed 13 points
Stringing feature edges : changed 4 points
Stringing feature edges : changed 4 points
Stringing feature edges : changed 6 points
Stringing feature edges : changed 3 points
Stringing feature edges : changed 0 points
Attraction:
    linear   : max:(-2.96332 0.432649 -0.291826) avg:(-0.000244161 -0.00109532 0.000765284)
    feature  : max:(0.949184 0.242815 -0.988309) avg:(-0.000232353 -0.00169249 0.000216214)
Feature analysis : total master points :29790 of which attracted to :
    feature point   : 0
    feature edge    : 1463
    nearest surface : 0
    rest            : 28327

--> FOAM Warning : Displacement (-0.10329 -0.156921 0.000255416) at mesh point 9627 coord (-7.20638 61.9524 -47.1143) points through the surrounding patch faces
Smoothing displacement ...
Iteration 0
Iteration 10
Iteration 20
Displacement smoothed in = 0.27 s


Moving mesh ...

Iteration 0
Moving mesh using displacement scaling : min:1  max:1
Checking faces in error :
    non-orthogonality > 65  degrees                        : 30
    faces with face pyramid volume < 1e-13                 : 2
    faces with face-decomposition tet quality < 1e-30      : 5
    faces with concavity > 80  degrees                     : 10
    faces with skewness > 4   (internal) or 20  (boundary) : 0
    faces with interpolation weights (0..1)  < 0.02        : 0
    faces with volume ratio of neighbour cells < 0.01      : 0
    faces with face twist < 0.02                           : 2
    faces on cells with determinant < 0.001                : 0

Iteration 1
Moving mesh using displacement scaling : min:0.75  max:1
Checking faces in error :
    non-orthogonality > 65  degrees                        : 28
    faces with face pyramid volume < 1e-13                 : 2
    faces with face-decomposition tet quality < 1e-30      : 5
    faces with concavity > 80  degrees                     : 10
    faces with skewness > 4   (internal) or 20  (boundary) : 0
    faces with interpolation weights (0..1)  < 0.02        : 0
    faces with volume ratio of neighbour cells < 0.01      : 0
    faces with face twist < 0.02                           : 2
    faces on cells with determinant < 0.001                : 0

Iteration 2
Moving mesh using displacement scaling : min:0.5625  max:1
Checking faces in error :
    non-orthogonality > 65  degrees                        : 27
    faces with face pyramid volume < 1e-13                 : 2
    faces with face-decomposition tet quality < 1e-30      : 5
    faces with concavity > 80  degrees                     : 10
    faces with skewness > 4   (internal) or 20  (boundary) : 0
    faces with interpolation weights (0..1)  < 0.02        : 0
    faces with volume ratio of neighbour cells < 0.01      : 0
    faces with face twist < 0.02                           : 2
    faces on cells with determinant < 0.001                : 0

Iteration 3
Moving mesh using displacement scaling : min:0.421875  max:1
Checking faces in error :
    non-orthogonality > 65  degrees                        : 24
    faces with face pyramid volume < 1e-13                 : 1
    faces with face-decomposition tet quality < 1e-30      : 6
    faces with concavity > 80  degrees                     : 10
    faces with skewness > 4   (internal) or 20  (boundary) : 0
    faces with interpolation weights (0..1)  < 0.02        : 0
    faces with volume ratio of neighbour cells < 0.01      : 0
    faces with face twist < 0.02                           : 2
    faces on cells with determinant < 0.001                : 0

Iteration 4
Moving mesh using displacement scaling : min:0.316406  max:1
Checking faces in error :
    non-orthogonality > 65  degrees                        : 24
    faces with face pyramid volume < 1e-13                 : 1
    faces with face-decomposition tet quality < 1e-30      : 5
    faces with concavity > 80  degrees                     : 10
    faces with skewness > 4   (internal) or 20  (boundary) : 0
    faces with interpolation weights (0..1)  < 0.02        : 0
    faces with volume ratio of neighbour cells < 0.01      : 0
    faces with face twist < 0.02                           : 2
    faces on cells with determinant < 0.001                : 0

Iteration 5
Displacement scaling for error reduction set to 0.
Moving mesh using displacement scaling : min:0.237305  max:1
Checking faces in error :
    non-orthogonality > 65  degrees                        : 24
    faces with face pyramid volume < 1e-13                 : 1
    faces with face-decomposition tet quality < 1e-30      : 2
    faces with concavity > 80  degrees                     : 10
    faces with skewness > 4   (internal) or 20  (boundary) : 0
    faces with interpolation weights (0..1)  < 0.02        : 0
    faces with volume ratio of neighbour cells < 0.01      : 0
    faces with face twist < 0.02                           : 5
    faces on cells with determinant < 0.001                : 0

Iteration 6
Moving mesh using displacement scaling : min:0  max:1
Checking faces in error :
    non-orthogonality > 65  degrees                        : 0
    faces with face pyramid volume < 1e-13                 : 0
    faces with face-decomposition tet quality < 1e-30      : 0
    faces with concavity > 80  degrees                     : 0
    faces with skewness > 4   (internal) or 20  (boundary) : 0
    faces with interpolation weights (0..1)  < 0.02        : 0
    faces with volume ratio of neighbour cells < 0.01      : 0
    faces with face twist < 0.02                           : 0
    faces on cells with determinant < 0.001                : 0
Successfully moved mesh
Moved mesh in = 0.57 s



Morph iteration 5
-----------------
Calculating patchDisplacement as distance to nearest surface point ...
    non-zone points : attract to nearest of all non-zone surfaces
    zone points     : attract to zone surface only

Wanted displacement : average:0.262567 min:3.45665e-05 max:2.35406
Calculated surface displacement in = 0.07 s


Detecting near surfaces ...
Overriding nearest with intersection of close gaps at 2 out of 29790 points.
Overriding displacement on features :
   implicit features    : false
   explicit features    : true
   multi-patch features : false

Detected 10 baffle edges out of 58491 edges.
Baffle points     : 12 of which attracted to :
    feature point : 0
    feature edge  : 12
    rest          : 0

Initially selected 2659 mesh points out of 29790 for reverse attraction.
Selected 8394 mesh points out of 29790 for reverse attraction.
Stringing feature edges : changed 125 points
Stringing feature edges : changed 21 points
Stringing feature edges : changed 12 points
Stringing feature edges : changed 15 points
Stringing feature edges : changed 13 points
Stringing feature edges : changed 11 points
Stringing feature edges : changed 6 points
Stringing feature edges : changed 5 points
Stringing feature edges : changed 3 points
Stringing feature edges : changed 2 points
Stringing feature edges : changed 0 points
Attraction:
    linear   : max:(-2.34113 0.194138 -0.151677) avg:(0.000119227 -0.00188246 0.000226358)
    feature  : max:(0.879607 0.209024 -0.923162) avg:(-0.000200195 -0.00173793 0.000194212)
Feature analysis : total master points :29790 of which attracted to :
    feature point   : 0
    feature edge    : 1487
    nearest surface : 0
    rest            : 28303

--> FOAM Warning : Displacement (-0.130146 -0.13175 -0.0377657) at mesh point 9627 coord (-7.30967 61.7955 -47.114) points through the surrounding patch faces
Smoothing displacement ...
Iteration 0
Iteration 10
Iteration 20
Displacement smoothed in = 0.29 s


Moving mesh ...

Iteration 0
Moving mesh using displacement scaling : min:1  max:1
Checking faces in error :
    non-orthogonality > 65  degrees                        : 38
    faces with face pyramid volume < 1e-13                 : 2
    faces with face-decomposition tet quality < 1e-30      : 23
    faces with concavity > 80  degrees                     : 3
    faces with skewness > 4   (internal) or 20  (boundary) : 0
    faces with interpolation weights (0..1)  < 0.02        : 0
    faces with volume ratio of neighbour cells < 0.01      : 0
    faces with face twist < 0.02                           : 2
    faces on cells with determinant < 0.001                : 0

Iteration 1
Moving mesh using displacement scaling : min:0.75  max:1
Checking faces in error :
    non-orthogonality > 65  degrees                        : 34
    faces with face pyramid volume < 1e-13                 : 2
    faces with face-decomposition tet quality < 1e-30      : 19
    faces with concavity > 80  degrees                     : 2
    faces with skewness > 4   (internal) or 20  (boundary) : 0
    faces with interpolation weights (0..1)  < 0.02        : 0
    faces with volume ratio of neighbour cells < 0.01      : 0
    faces with face twist < 0.02                           : 0
    faces on cells with determinant < 0.001                : 0

Iteration 2
Moving mesh using displacement scaling : min:0.5625  max:1
Checking faces in error :
    non-orthogonality > 65  degrees                        : 32
    faces with face pyramid volume < 1e-13                 : 2
    faces with face-decomposition tet quality < 1e-30      : 15
    faces with concavity > 80  degrees                     : 2
    faces with skewness > 4   (internal) or 20  (boundary) : 0
    faces with interpolation weights (0..1)  < 0.02        : 0
    faces with volume ratio of neighbour cells < 0.01      : 0
    faces with face twist < 0.02                           : 0
    faces on cells with determinant < 0.001                : 0

Iteration 3
Moving mesh using displacement scaling : min:0.421875  max:1
Checking faces in error :
    non-orthogonality > 65  degrees                        : 30
    faces with face pyramid volume < 1e-13                 : 2
    faces with face-decomposition tet quality < 1e-30      : 7
    faces with concavity > 80  degrees                     : 2
    faces with skewness > 4   (internal) or 20  (boundary) : 0
    faces with interpolation weights (0..1)  < 0.02        : 0
    faces with volume ratio of neighbour cells < 0.01      : 0
    faces with face twist < 0.02                           : 0
    faces on cells with determinant < 0.001                : 0

Iteration 4
Moving mesh using displacement scaling : min:0.316406  max:1
Checking faces in error :
    non-orthogonality > 65  degrees                        : 28
    faces with face pyramid volume < 1e-13                 : 1
    faces with face-decomposition tet quality < 1e-30      : 6
    faces with concavity > 80  degrees                     : 2
    faces with skewness > 4   (internal) or 20  (boundary) : 0
    faces with interpolation weights (0..1)  < 0.02        : 0
    faces with volume ratio of neighbour cells < 0.01      : 0
    faces with face twist < 0.02                           : 0
    faces on cells with determinant < 0.001                : 0

Iteration 5
Displacement scaling for error reduction set to 0.
Moving mesh using displacement scaling : min:0.237305  max:1
Checking faces in error :
    non-orthogonality > 65  degrees                        : 28
    faces with face pyramid volume < 1e-13                 : 1
    faces with face-decomposition tet quality < 1e-30      : 5
    faces with concavity > 80  degrees                     : 2
    faces with skewness > 4   (internal) or 20  (boundary) : 0
    faces with interpolation weights (0..1)  < 0.02        : 0
    faces with volume ratio of neighbour cells < 0.01      : 0
    faces with face twist < 0.02                           : 0
    faces on cells with determinant < 0.001                : 0

Iteration 6
Moving mesh using displacement scaling : min:0  max:1
Checking faces in error :
    non-orthogonality > 65  degrees                        : 0
    faces with face pyramid volume < 1e-13                 : 0
    faces with face-decomposition tet quality < 1e-30      : 0
    faces with concavity > 80  degrees                     : 0
    faces with skewness > 4   (internal) or 20  (boundary) : 0
    faces with interpolation weights (0..1)  < 0.02        : 0
    faces with volume ratio of neighbour cells < 0.01      : 0
    faces with face twist < 0.02                           : 0
    faces on cells with determinant < 0.001                : 0
Successfully moved mesh
Moved mesh in = 0.54 s



Morph iteration 6
-----------------
Calculating patchDisplacement as distance to nearest surface point ...
    non-zone points : attract to nearest of all non-zone surfaces
    zone points     : attract to zone surface only

Wanted displacement : average:0.141975 min:1.8844e-05 max:1.69465
Calculated surface displacement in = 0.06 s


Detecting near surfaces ...
Overriding nearest with intersection of close gaps at 1 out of 29790 points.
Overriding displacement on features :
   implicit features    : false
   explicit features    : true
   multi-patch features : false

Detected 10 baffle edges out of 58491 edges.
Baffle points     : 12 of which attracted to :
    feature point : 0
    feature edge  : 12
    rest          : 0

Initially selected 2654 mesh points out of 29790 for reverse attraction.
Selected 8385 mesh points out of 29790 for reverse attraction.
Stringing feature edges : changed 114 points
Stringing feature edges : changed 31 points
Stringing feature edges : changed 19 points
Stringing feature edges : changed 19 points
Stringing feature edges : changed 18 points
Stringing feature edges : changed 14 points
Stringing feature edges : changed 9 points
Stringing feature edges : changed 7 points
Stringing feature edges : changed 6 points
Stringing feature edges : changed 3 points
Stringing feature edges : changed 1 points
Stringing feature edges : changed 1 points
Stringing feature edges : changed 1 points
Stringing feature edges : changed 1 points
Stringing feature edges : changed 0 points
Attraction:
    linear   : max:(-1.68535 0.1318 -0.118673) avg:(0.000378467 -0.00194072 -9.81187e-05)
    feature  : max:(0.341535 -0.941988 -0.195547) avg:(-0.000166867 -0.00122731 0.000216406)
Feature analysis : total master points :29790 of which attracted to :
    feature point   : 0
    feature edge    : 1537
    nearest surface : 0
    rest            : 28253

--> FOAM Warning : Displacement (-0.14531 -0.106908 -0.0653725) at mesh point 9627 coord (-7.4396 61.664 -47.1517) points through the surrounding patch faces
Smoothing displacement ...
Iteration 0
Iteration 10
Iteration 20
Displacement smoothed in = 0.28 s


Moving mesh ...

Iteration 0
Moving mesh using displacement scaling : min:1  max:1
Checking faces in error :
    non-orthogonality > 65  degrees                        : 63
    faces with face pyramid volume < 1e-13                 : 8
    faces with face-decomposition tet quality < 1e-30      : 30
    faces with concavity > 80  degrees                     : 0
    faces with skewness > 4   (internal) or 20  (boundary) : 0
    faces with interpolation weights (0..1)  < 0.02        : 0
    faces with volume ratio of neighbour cells < 0.01      : 0
    faces with face twist < 0.02                           : 4
    faces on cells with determinant < 0.001                : 0

Iteration 1
Moving mesh using displacement scaling : min:0.75  max:1
Checking faces in error :
    non-orthogonality > 65  degrees                        : 54
    faces with face pyramid volume < 1e-13                 : 2
    faces with face-decomposition tet quality < 1e-30      : 29
    faces with concavity > 80  degrees                     : 0
    faces with skewness > 4   (internal) or 20  (boundary) : 0
    faces with interpolation weights (0..1)  < 0.02        : 0
    faces with volume ratio of neighbour cells < 0.01      : 0
    faces with face twist < 0.02                           : 8
    faces on cells with determinant < 0.001                : 0

Iteration 2
Moving mesh using displacement scaling : min:0.5625  max:1
Checking faces in error :
    non-orthogonality > 65  degrees                        : 49
    faces with face pyramid volume < 1e-13                 : 2
    faces with face-decomposition tet quality < 1e-30      : 24
[...]
    faces with face twist < 0.02                           : 0
    faces on cells with determinant < 0.001                : 0
displacementMedialAxis : Iteration 4
Moving mesh using displacement scaling : min:0  max:1
Checking faces in error :
    non-orthogonality > 65  degrees                        : 0
    faces with face pyramid volume < 1e-13                 : 0
    faces with face-decomposition tet quality < 1e-30      : 0
    faces with concavity > 80  degrees                     : 0
    faces with skewness > 4   (internal) or 20  (boundary) : 0
    faces with interpolation weights (0..1)  < 0.02        : 0
    faces with volume ratio of neighbour cells < 0.01      : 0
    faces with face twist < 0.02                           : 0
    faces on cells with determinant < 0.001                : 0
displacementMedialAxis : Successfully moved mesh
displacementMedialAxis : Finished moving mesh ...
truncateDisplacement : Unextruded 0 faces due to non-consecutive vertices being extruded.
truncateDisplacement : Unextruded 0 faces due to stringed edges with inconsistent extrusion.

Setting up information for layer truncation ...
Detected 0 baffles across faceZones of type internal


Checking mesh with layer ...
Checking faces in error :
    non-orthogonality > 65  degrees                        : 0
    faces with face pyramid volume < 1e-13                 : 0
    faces with face-decomposition tet quality < 1e-30      : 2
    faces with concavity > 80  degrees                     : 0
    faces with skewness > 4   (internal) or 20  (boundary) : 0
    faces with interpolation weights (0..1)  < 0.02        : 0
    faces with volume ratio of neighbour cells < 0.01      : 0
    faces with face twist < 0.02                           : 0
    faces on cells with determinant < 0.001                : 0
Detected 2 illegal faces (concave, zero area or negative cell pyramid volume)
Extruding 12349 out of 19307 faces (63.9613%). Removed extrusion at 2 faces.
Added 37366 out of 96535 cells (38.7072%).


Layer addition iteration 33
--------------------------

Determining displacement for added points according to pointNormal ...
Detected 0 points with point normal pointing through faces.
Reset displacement at 0 points to average of surrounding points.

displacementMedialAxis : Smoothing using Medial Axis ...
displacementMedialAxis : Reducing layer thickness at 6694 nodes where thickness to medial axis distance is large 
displacementMedialAxis : Removing isolated regions ...
- if partially extruded faces make angle < 30
- if exclusively surrounded by non-extruded faces
displacementMedialAxis : Number of isolated points extrusion stopped : 0
fieldSmoother : Smoothing field ...
    Iteration 0   residual 0.0435352
displacementMedialAxis : Moving mesh ...
displacementMedialAxis : Iteration 0
Moving mesh using displacement scaling : min:1  max:1
Checking faces in error :
    non-orthogonality > 65  degrees                        : 188
    faces with face pyramid volume < 1e-13                 : 5
    faces with face-decomposition tet quality < 1e-30      : 65
    faces with concavity > 80  degrees                     : 2
    faces with skewness > 4   (internal) or 20  (boundary) : 0
    faces with interpolation weights (0..1)  < 0.02        : 0
    faces with volume ratio of neighbour cells < 0.01      : 0
    faces with face twist < 0.02                           : 0
    faces on cells with determinant < 0.001                : 0
displacementMedialAxis : Iteration 1
Moving mesh using displacement scaling : min:0.75  max:1
Checking faces in error :
    non-orthogonality > 65  degrees                        : 17
    faces with face pyramid volume < 1e-13                 : 0
    faces with face-decomposition tet quality < 1e-30      : 21
    faces with concavity > 80  degrees                     : 0
    faces with skewness > 4   (internal) or 20  (boundary) : 0
    faces with interpolation weights (0..1)  < 0.02        : 0
    faces with volume ratio of neighbour cells < 0.01      : 0
    faces with face twist < 0.02                           : 2
    faces on cells with determinant < 0.001                : 0
displacementMedialAxis : Iteration 2
Moving mesh using displacement scaling : min:0.5625  max:1
Checking faces in error :
    non-orthogonality > 65  degrees                        : 3
    faces with face pyramid volume < 1e-13                 : 0
    faces with face-decomposition tet quality < 1e-30      : 5
    faces with concavity > 80  degrees                     : 0
    faces with skewness > 4   (internal) or 20  (boundary) : 0
    faces with interpolation weights (0..1)  < 0.02        : 0
    faces with volume ratio of neighbour cells < 0.01      : 0
    faces with face twist < 0.02                           : 1
    faces on cells with determinant < 0.001                : 0
displacementMedialAxis : Iteration 3
displacementMedialAxis : Displacement scaling for error reduction set to 0.
Moving mesh using displacement scaling : min:0.421875  max:1
Checking faces in error :
    non-orthogonality > 65  degrees                        : 2
    faces with face pyramid volume < 1e-13                 : 0
    faces with face-decomposition tet quality < 1e-30      : 0
    faces with concavity > 80  degrees                     : 0
    faces with skewness > 4   (internal) or 20  (boundary) : 0
    faces with interpolation weights (0..1)  < 0.02        : 0
    faces with volume ratio of neighbour cells < 0.01      : 0
    faces with face twist < 0.02                           : 0
    faces on cells with determinant < 0.001                : 0
displacementMedialAxis : Iteration 4
Moving mesh using displacement scaling : min:0  max:1
Checking faces in error :
    non-orthogonality > 65  degrees                        : 0
    faces with face pyramid volume < 1e-13                 : 0
    faces with face-decomposition tet quality < 1e-30      : 0
    faces with concavity > 80  degrees                     : 0
    faces with skewness > 4   (internal) or 20  (boundary) : 0
    faces with interpolation weights (0..1)  < 0.02        : 0
    faces with volume ratio of neighbour cells < 0.01      : 0
    faces with face twist < 0.02                           : 0
    faces on cells with determinant < 0.001                : 0
displacementMedialAxis : Successfully moved mesh
displacementMedialAxis : Finished moving mesh ...
truncateDisplacement : Unextruded 0 faces due to non-consecutive vertices being extruded.
truncateDisplacement : Unextruded 0 faces due to stringed edges with inconsistent extrusion.

Setting up information for layer truncation ...
Detected 0 baffles across faceZones of type internal


Checking mesh with layer ...
Checking faces in error :
    non-orthogonality > 65  degrees                        : 0
    faces with face pyramid volume < 1e-13                 : 0
    faces with face-decomposition tet quality < 1e-30      : 2
    faces with concavity > 80  degrees                     : 0
    faces with skewness > 4   (internal) or 20  (boundary) : 0
    faces with interpolation weights (0..1)  < 0.02        : 0
    faces with volume ratio of neighbour cells < 0.01      : 0
    faces with face twist < 0.02                           : 0
    faces on cells with determinant < 0.001                : 0
Detected 2 illegal faces (concave, zero area or negative cell pyramid volume)
Extruding 12347 out of 19307 faces (63.9509%). Removed extrusion at 2 faces.
Added 37359 out of 96535 cells (38.7%).


Layer addition iteration 34
--------------------------

Determining displacement for added points according to pointNormal ...
Detected 0 points with point normal pointing through faces.
Reset displacement at 0 points to average of surrounding points.

displacementMedialAxis : Smoothing using Medial Axis ...
displacementMedialAxis : Reducing layer thickness at 6692 nodes where thickness to medial axis distance is large 
displacementMedialAxis : Removing isolated regions ...
- if partially extruded faces make angle < 30
- if exclusively surrounded by non-extruded faces
displacementMedialAxis : Number of isolated points extrusion stopped : 0
fieldSmoother : Smoothing field ...
    Iteration 0   residual 0.0435445
displacementMedialAxis : Moving mesh ...
displacementMedialAxis : Iteration 0
Moving mesh using displacement scaling : min:1  max:1
Checking faces in error :
    non-orthogonality > 65  degrees                        : 188
    faces with face pyramid volume < 1e-13                 : 5
    faces with face-decomposition tet quality < 1e-30      : 65
    faces with concavity > 80  degrees                     : 2
    faces with skewness > 4   (internal) or 20  (boundary) : 0
    faces with interpolation weights (0..1)  < 0.02        : 0
    faces with volume ratio of neighbour cells < 0.01      : 0
    faces with face twist < 0.02                           : 0
    faces on cells with determinant < 0.001                : 0
displacementMedialAxis : Iteration 1
Moving mesh using displacement scaling : min:0.75  max:1
Checking faces in error :
    non-orthogonality > 65  degrees                        : 17
    faces with face pyramid volume < 1e-13                 : 0
    faces with face-decomposition tet quality < 1e-30      : 21
    faces with concavity > 80  degrees                     : 0
    faces with skewness > 4   (internal) or 20  (boundary) : 0
    faces with interpolation weights (0..1)  < 0.02        : 0
    faces with volume ratio of neighbour cells < 0.01      : 0
    faces with face twist < 0.02                           : 2
    faces on cells with determinant < 0.001                : 0
displacementMedialAxis : Iteration 2
Moving mesh using displacement scaling : min:0.5625  max:1
Checking faces in error :
    non-orthogonality > 65  degrees                        : 3
    faces with face pyramid volume < 1e-13                 : 0
    faces with face-decomposition tet quality < 1e-30      : 5
    faces with concavity > 80  degrees                     : 0
    faces with skewness > 4   (internal) or 20  (boundary) : 0
    faces with interpolation weights (0..1)  < 0.02        : 0
    faces with volume ratio of neighbour cells < 0.01      : 0
    faces with face twist < 0.02                           : 1
    faces on cells with determinant < 0.001                : 0
displacementMedialAxis : Iteration 3
displacementMedialAxis : Displacement scaling for error reduction set to 0.
Moving mesh using displacement scaling : min:0.421875  max:1
Checking faces in error :
    non-orthogonality > 65  degrees                        : 2
    faces with face pyramid volume < 1e-13                 : 0
    faces with face-decomposition tet quality < 1e-30      : 0
    faces with concavity > 80  degrees                     : 0
    faces with skewness > 4   (internal) or 20  (boundary) : 0
    faces with interpolation weights (0..1)  < 0.02        : 0
    faces with volume ratio of neighbour cells < 0.01      : 0
    faces with face twist < 0.02                           : 0
    faces on cells with determinant < 0.001                : 0
displacementMedialAxis : Iteration 4
Moving mesh using displacement scaling : min:0  max:1
Checking faces in error :
    non-orthogonality > 65  degrees                        : 0
    faces with face pyramid volume < 1e-13                 : 0
    faces with face-decomposition tet quality < 1e-30      : 0
    faces with concavity > 80  degrees                     : 0
    faces with skewness > 4   (internal) or 20  (boundary) : 0
    faces with interpolation weights (0..1)  < 0.02        : 0
    faces with volume ratio of neighbour cells < 0.01      : 0
    faces with face twist < 0.02                           : 0
    faces on cells with determinant < 0.001                : 0
displacementMedialAxis : Successfully moved mesh
displacementMedialAxis : Finished moving mesh ...
truncateDisplacement : Unextruded 0 faces due to non-consecutive vertices being extruded.
truncateDisplacement : Unextruded 0 faces due to stringed edges with inconsistent extrusion.

Setting up information for layer truncation ...
Detected 0 baffles across faceZones of type internal


Checking mesh with layer ...
Checking faces in error :
    non-orthogonality > 65  degrees                        : 0
    faces with face pyramid volume < 1e-13                 : 0
    faces with face-decomposition tet quality < 1e-30      : 2
    faces with concavity > 80  degrees                     : 0
    faces with skewness > 4   (internal) or 20  (boundary) : 0
    faces with interpolation weights (0..1)  < 0.02        : 0
    faces with volume ratio of neighbour cells < 0.01      : 0
    faces with face twist < 0.02                           : 0
    faces on cells with determinant < 0.001                : 0
Detected 2 illegal faces (concave, zero area or negative cell pyramid volume)
Extruding 12345 out of 19307 faces (63.9405%). Removed extrusion at 2 faces.
Added 37353 out of 96535 cells (38.6937%).


Layer addition iteration 35
--------------------------

Determining displacement for added points according to pointNormal ...
Detected 0 points with point normal pointing through faces.
Reset displacement at 0 points to average of surrounding points.

displacementMedialAxis : Smoothing using Medial Axis ...
displacementMedialAxis : Reducing layer thickness at 6690 nodes where thickness to medial axis distance is large 
displacementMedialAxis : Removing isolated regions ...
- if partially extruded faces make angle < 30
- if exclusively surrounded by non-extruded faces
displacementMedialAxis : Number of isolated points extrusion stopped : 0
fieldSmoother : Smoothing field ...
    Iteration 0   residual 0.0435538
displacementMedialAxis : Moving mesh ...
displacementMedialAxis : Iteration 0
Moving mesh using displacement scaling : min:1  max:1
Checking faces in error :
    non-orthogonality > 65  degrees                        : 190
    faces with face pyramid volume < 1e-13                 : 5
    faces with face-decomposition tet quality < 1e-30      : 65
    faces with concavity > 80  degrees                     : 2
    faces with skewness > 4   (internal) or 20  (boundary) : 0
    faces with interpolation weights (0..1)  < 0.02        : 0
    faces with volume ratio of neighbour cells < 0.01      : 0
    faces with face twist < 0.02                           : 0
    faces on cells with determinant < 0.001                : 0
displacementMedialAxis : Iteration 1
Moving mesh using displacement scaling : min:0.75  max:1
Checking faces in error :
    non-orthogonality > 65  degrees                        : 17
    faces with face pyramid volume < 1e-13                 : 0
    faces with face-decomposition tet quality < 1e-30      : 21
    faces with concavity > 80  degrees                     : 0
    faces with skewness > 4   (internal) or 20  (boundary) : 0
    faces with interpolation weights (0..1)  < 0.02        : 0
    faces with volume ratio of neighbour cells < 0.01      : 0
    faces with face twist < 0.02                           : 2
    faces on cells with determinant < 0.001                : 0
displacementMedialAxis : Iteration 2
Moving mesh using displacement scaling : min:0.5625  max:1
Checking faces in error :
    non-orthogonality > 65  degrees                        : 3
    faces with face pyramid volume < 1e-13                 : 0
    faces with face-decomposition tet quality < 1e-30      : 5
    faces with concavity > 80  degrees                     : 0
    faces with skewness > 4   (internal) or 20  (boundary) : 0
    faces with interpolation weights (0..1)  < 0.02        : 0
    faces with volume ratio of neighbour cells < 0.01      : 0
    faces with face twist < 0.02                           : 1
    faces on cells with determinant < 0.001                : 0
displacementMedialAxis : Iteration 3
displacementMedialAxis : Displacement scaling for error reduction set to 0.
Moving mesh using displacement scaling : min:0.421875  max:1
Checking faces in error :
    non-orthogonality > 65  degrees                        : 2
    faces with face pyramid volume < 1e-13                 : 0
    faces with face-decomposition tet quality < 1e-30      : 0
    faces with concavity > 80  degrees                     : 0
    faces with skewness > 4   (internal) or 20  (boundary) : 0
    faces with interpolation weights (0..1)  < 0.02        : 0
    faces with volume ratio of neighbour cells < 0.01      : 0
    faces with face twist < 0.02                           : 0
    faces on cells with determinant < 0.001                : 0
displacementMedialAxis : Iteration 4
Moving mesh using displacement scaling : min:0  max:1
Checking faces in error :
    non-orthogonality > 65  degrees                        : 0
    faces with face pyramid volume < 1e-13                 : 0
    faces with face-decomposition tet quality < 1e-30      : 0
    faces with concavity > 80  degrees                     : 0
    faces with skewness > 4   (internal) or 20  (boundary) : 0
    faces with interpolation weights (0..1)  < 0.02        : 0
    faces with volume ratio of neighbour cells < 0.01      : 0
    faces with face twist < 0.02                           : 0
    faces on cells with determinant < 0.001                : 0
displacementMedialAxis : Successfully moved mesh
displacementMedialAxis : Finished moving mesh ...
truncateDisplacement : Unextruded 0 faces due to non-consecutive vertices being extruded.
truncateDisplacement : Unextruded 0 faces due to stringed edges with inconsistent extrusion.

Setting up information for layer truncation ...
Detected 0 baffles across faceZones of type internal


Checking mesh with layer ...
Checking faces in error :
    non-orthogonality > 65  degrees                        : 0
    faces with face pyramid volume < 1e-13                 : 0
    faces with face-decomposition tet quality < 1e-30      : 0
    faces with concavity > 80  degrees                     : 0
    faces with skewness > 4   (internal) or 20  (boundary) : 0
    faces with interpolation weights (0..1)  < 0.02        : 0
    faces with volume ratio of neighbour cells < 0.01      : 0
    faces with face twist < 0.02                           : 0
    faces on cells with determinant < 0.001                : 0
Detected 0 illegal faces (concave, zero area or negative cell pyramid volume)
Extruding 12345 out of 19307 faces (63.9405%). Removed extrusion at 0 faces.
Added 37348 out of 96535 cells (38.6886%).
Edge intersection testing:
    Number of edges             : 311189
    Number of edges to retest   : 0
    Number of intersected edges : 56171
Mesh with layers : cells:96745  faces:311189  points:120436

patch            faces        layers        overall thickness
                          target   mesh     [m]       [%]
-----            -----    -----    ----     ---       ---
inlethemisphere  2300     5        0.738    0.763     23.1    
outlethemisphere 2818     5        0.572    0.626     19.5    
tubing           14189    5        2.4      1.31      44.3    

Layer mesh : cells:96745  faces:311189  points:120436
Cells per refinement level:
    0	2
    1	529
    2	2372
    3	5631
    4	65809
    5	22402
Writing mesh to time constant
Wrote mesh in = 0.2 s.
Layers added in = 36.73 s.
Checking final mesh ...
Checking faces in error :
    non-orthogonality > 65  degrees                        : 0
    faces with face pyramid volume < 1e-13                 : 0
    faces with face-decomposition tet quality < 1e-30      : 0
    faces with concavity > 80  degrees                     : 0
    faces with skewness > 4   (internal) or 20  (boundary) : 0
    faces with interpolation weights (0..1)  < 0.02        : 0
    faces with volume ratio of neighbour cells < 0.01      : 0
    faces with face twist < 0.02                           : 0
    faces on cells with determinant < 0.001                : 0
Finished meshing without any errors
Finished meshing in = 54.6 s.
End

