/*---------------------------------------------------------------------------*\
| =========                 |                                                 |
| \\      /  F ield         | OpenFOAM: The Open Source CFD Toolbox           |
|  \\    /   O peration     | Version:  2312                                  |
|   \\  /    A nd           | Website:  www.openfoam.com                      |
|    \\/     M anipulation  |                                                 |
\*---------------------------------------------------------------------------*/
Build  : _c39a0f64-20231220 OPENFOAM=2312 version=2312
Arch   : "LSB;label=32;scalar=64"
Exec   : snappyHexMesh -overwrite
Date   : Jun 04 2024
Time   : 18:41:32
Host   : YanD
PID    : 128775
I/O    : uncollated
Case   : /home/yand/OpenFOAM/yand-v2312/run/github/yand_openfoam/test/multiple_pimpleFoam_snappyPttches
nProcs : 1
trapFpe: Floating point exception trapping enabled (FOAM_SIGFPE).
fileModificationChecking : Monitoring run-time modified files using timeStampMaster (fileModificationSkew 5, maxFileModificationPolls 20)
allowSystemOperations : Allowing user-supplied system call operations

// * * * * * * * * * * * * * * * * * * * * * * * * * * * * * * * * * * * * * //
Create time

Create mesh for time = 0

Read mesh in = 0 s

Overall mesh bounding box  : (-10 -10 -10) (10 10 110)
Relative tolerance         : 1e-06
Absolute matching distance : 0.000123288

Reading refinement surfaces.
Read refinement surfaces in = 0 s

Reading refinement shells.
--> FOAM Warning : 
    From Foam::shellSurfaces::shellSurfaces(const Foam::searchableSurfaces&, const Foam::dictionary&, bool)
    in file shellSurfaces/shellSurfaces.C at line 809
    Reading "system/snappyHexMeshDict/castellatedMeshControls/refinementRegions" at line 198 to 205
    Not all entries in refinementRegions dictionary were used. The following entries were not used : 2(bottomPatchBox topPatchBox)
Read refinement shells in = 0 s

Setting refinement level of surface to be consistent with shells.
For geometry wall.obj detected 0 uncached triangles out of 252
For geometry topPatch.obj detected 0 uncached triangles out of 429
For geometry bottomPatch.obj detected 0 uncached triangles out of 429
Checked shell refinement in = 0 s

Reading features.
Read edgeMesh cylinder.eMesh
    points      : 252
    edges       : 252
    boundingBox : (-5 -4.99845 0) (5 4.99845 100)

Refinement level according to distance to "cylinder.eMesh" (252 points, 252 edges).
    level 0 for all cells within 0 metre.
Read features in = 0 s


Determining initial surface intersections
-----------------------------------------

Edge intersection testing:
    Number of edges             : 1725
    Number of edges to retest   : 0
    Number of intersected edges : 0
Edge intersection testing:
    Number of edges             : 1725
    Number of edges to retest   : 1725
    Number of intersected edges : 202
Calculated surface intersections in = 0.01 s

Initial mesh : cells:500  faces:1725  points:756
Cells per refinement level:
    0	500
Setting refinement level of surface to be consistent with curvature.
Checked curvature refinement in = 0 s


Adding patches for surface regions
----------------------------------

Patch Type                Region                        
----- ----                ------                        
wall:

3     wall                wall                          

topPatch:

4     patch               topPatch                      

bottomPatch:

5     patch               bottomPatch                   

Added patches in = 0 s

Edge intersection testing:
    Number of edges             : 1725
    Number of edges to retest   : 0
    Number of intersected edges : 202
Decomposition method none [1]

Refinement phase
----------------

Found point (0.05 0.05 1.5) in cell 37 on processor 0

Feature refinement iteration 0
------------------------------

Marked for refinement due to explicit features             : 0 cells.
Determined cells to refine in = 0 s
Selected for feature refinement : 0 cells (out of 500)
Stopping refining since too few cells selected.


Surface refinement iteration 0
------------------------------

Marked for refinement due to surface intersection          : 204 cells.
Determined cells to refine in = 0 s
Selected for refinement : 204 cells (out of 500)
Edge intersection testing:
    Number of edges             : 6651
    Number of edges to retest   : 6255
    Number of intersected edges : 644
Refined mesh in = 0 s
After refinement surface refinement iteration 0 : cells:1928  faces:6651  points:2838
Cells per refinement level:
    0	296
    1	1632

Surface refinement iteration 1
------------------------------

Marked for refinement due to surface intersection          : 968 cells.
Determined cells to refine in = 0 s
Selected for refinement : 1128 cells (out of 1928)
Edge intersection testing:
    Number of edges             : 32100
    Number of edges to retest   : 32004
    Number of intersected edges : 2792
Refined mesh in = 0.03 s
After refinement surface refinement iteration 1 : cells:9824  faces:32100  points:12525
Cells per refinement level:
    0	128
    1	2016
    2	7680

Surface refinement iteration 2
------------------------------

Marked for refinement due to surface intersection          : 4160 cells.
Determined cells to refine in = 0.01 s
Selected for refinement : 4608 cells (out of 9824)
Edge intersection testing:
    Number of edges             : 137724
    Number of edges to retest   : 133156
    Number of intersected edges : 11176
Refined mesh in = 0.13 s
After refinement surface refinement iteration 2 : cells:42080  faces:137724  points:53671
Cells per refinement level:
    0	104
    1	1752
    2	7200
    3	33024

Surface refinement iteration 3
------------------------------

Marked for refinement due to surface intersection          : 144 cells.
Determined cells to refine in = 0 s
Selected for refinement : 168 cells (out of 42080)
Edge intersection testing:
    Number of edges             : 141300
    Number of edges to retest   : 9304
    Number of intersected edges : 11352
Refined mesh in = 0.08 s
After refinement surface refinement iteration 3 : cells:43256  faces:141300  points:54879
Cells per refinement level:
    0	104
    1	1728
    2	7248
    3	34176

Surface refinement iteration 4
------------------------------

Marked for refinement due to surface intersection          : 16 cells.
Determined cells to refine in = 0 s
Selected for refinement : 16 cells (out of 43256)
Edge intersection testing:
    Number of edges             : 141636
    Number of edges to retest   : 1448
    Number of intersected edges : 11352
Refined mesh in = 0.07 s
After refinement surface refinement iteration 4 : cells:43368  faces:141636  points:54991
Cells per refinement level:
    0	104
    1	1728
    2	7232
    3	34304

Surface refinement iteration 5
------------------------------

Marked for refinement due to surface intersection          : 0 cells.
Determined cells to refine in = 0.01 s
Selected for refinement : 0 cells (out of 43368)
Stopping refining since too few cells selected.


Removing mesh beyond surface intersections
------------------------------------------

Setting cellZones according to locationsInMesh:
Location : (0.05 0.05 1.5)
    cellZone : none

For cellZone none found point (0.05 0.05 1.5) in global region 1 out of 2 regions.
--> FOAM Warning : 
    From void Foam::meshRefinement::nearestFace(const labelUList&, const Foam::bitSet&, Foam::autoPtr<Foam::mapDistribute>&, Foam::labelList&, Foam::label) const
    in file meshRefinement/meshRefinement.C at line 515
    Did not visit some faces, e.g. face 140484 at (-8 10 -7)
Keeping all cells containing inside points
Selected for keeping : 30264 cells.
Edge intersection testing:
    Number of edges             : 100776
    Number of edges to retest   : 12768
    Number of intersected edges : 11352

Shell refinement iteration 0
----------------------------

Marked for refinement due to distance to explicit features : 0 cells.
Marked for refinement due to refinement shells             : 0 cells.
Determined cells to refine in = 0.08 s
Selected for internal refinement : 1080 cells (out of 30264)
Edge intersection testing:
    Number of edges             : 123027
    Number of edges to retest   : 56410
    Number of intersected edges : 11352
Refined mesh in = 0.09 s
After refinement shell refinement iteration 0 : cells:37824  faces:123027  points:47420
Cells per refinement level:
    0	0
    1	0
    2	2368
    3	35456

Shell refinement iteration 1
----------------------------

Marked for refinement due to distance to explicit features : 0 cells.
Marked for refinement due to refinement shells             : 0 cells.
Determined cells to refine in = 0.01 s
Selected for internal refinement : 0 cells (out of 37824)
Stopping refining since too few cells selected.


Dangling coarse cells refinement iteration 0
--------------------------------------------

Determined cells to refine in = 0 s
Selected for refinement : 0 cells (out of 37824)
Stopping refining since too few cells selected.


Dangling coarse cells refinement iteration 0
--------------------------------------------

Determined cells to refine in = 0.01 s
Selected for refinement : 0 cells (out of 37824)
Stopping refining since too few cells selected.


Refinement transition refinement iteration 0
--------------------------------------------

Determined cells to refine in = 0 s
Selected for refinement : 0 cells (out of 37824)
Stopping refining since too few cells selected.


Splitting mesh at surface intersections
---------------------------------------

Introducing baffles for 11352 faces that are intersected by the surface.

Setting cellZones according to locationsInMesh:
Location : (0.05 0.05 1.5)
    cellZone : none

For cellZone none found point (0.05 0.05 1.5) in global region 0 out of 2 regions.
Edge intersection testing:
    Number of edges             : 134379
    Number of edges to retest   : 72804
    Number of intersected edges : 22704
Created baffles in = 0.08 s


After introducing baffles : cells:37824  faces:134379  points:47420
Cells per refinement level:
    0	0
    1	0
    2	2368
    3	35456

Introducing baffles to block off problem cells
----------------------------------------------

markFacesOnProblemCells : marked 24108 additional internal faces to be converted into baffles.
Analyzed problem cells in = 0.05 s


Introducing baffles to delete problem cells.

Edge intersection testing:
    Number of edges             : 158487
    Number of edges to retest   : 72336
    Number of intersected edges : 22704
Created baffles in = 0.08 s


After introducing baffles : cells:37824  faces:158487  points:47420
Cells per refinement level:
    0	0
    1	0
    2	2368
    3	35456
Setting cellZones according to locationsInMesh:
Location : (0.05 0.05 1.5)
    cellZone : none

For cellZone none found point (0.05 0.05 1.5) in global region 0 out of 12057 regions.
Edge intersection testing:
    Number of edges             : 158487
    Number of edges to retest   : 86792
    Number of intersected edges : 22704

Remove unreachable sections of mesh
-----------------------------------

Keeping all cells containing points 1((0.05 0.05 1.5))
Selected for keeping : 25768 cells.
Edge intersection testing:
    Number of edges             : 86151
    Number of edges to retest   : 0
    Number of intersected edges : 11352
Split mesh in = 0.17 s


After subsetting : cells:25768  faces:86151  points:34650
Cells per refinement level:
    0	0
    1	0
    2	2368
    3	23400

Introducing zones for interfaces
--------------------------------

Setting cellZones according to locationsInMesh:
Location : (0.05 0.05 1.5)
    cellZone : none

For cellZone none found point (0.05 0.05 1.5) in global region 0 out of 1 regions.
Setting faceZones according to neighbouring cellZones:

Edge intersection testing:
    Number of edges             : 86151
    Number of edges to retest   : 0
    Number of intersected edges : 11352

Handling cells with snap problems
---------------------------------

Introducing baffles for 11352 faces that are intersected by the surface.

Setting cellZones according to locationsInMesh:
Location : (0.05 0.05 1.5)
    cellZone : none

For cellZone none found point (0.05 0.05 1.5) in global region 0 out of 1 regions.
Edge intersection testing:
    Number of edges             : 86151
    Number of edges to retest   : 34760
    Number of intersected edges : 11352
Created baffles in = 0.1 s


After introducing baffles : cells:25768  faces:86151  points:34650
Cells per refinement level:
    0	0
    1	0
    2	2368
    3	23400

Introducing baffles to block off problem cells
----------------------------------------------

markFacesOnProblemCells : marked 0 additional internal faces to be converted into baffles.
Analyzed problem cells in = 0.03 s


Introducing baffles to delete problem cells.

Created baffles in = 0 s


After introducing baffles : cells:25768  faces:86151  points:34650
Cells per refinement level:
    0	0
    1	0
    2	2368
    3	23400
Setting cellZones according to locationsInMesh:
Location : (0.05 0.05 1.5)
    cellZone : none

For cellZone none found point (0.05 0.05 1.5) in global region 0 out of 1 regions.
Edge intersection testing:
    Number of edges             : 86151
    Number of edges to retest   : 34760
    Number of intersected edges : 11352

Remove unreachable sections of mesh
-----------------------------------

Split mesh in = 0.06 s


After subsetting : cells:25768  faces:86151  points:34650
Cells per refinement level:
    0	0
    1	0
    2	2368
    3	23400

Merge free-standing baffles
---------------------------

freeStandingBaffles : detected 0 free-standing baffles out of 0

Detected free-standing baffles : 0
Merged free-standing baffles in = 0.01 s


dupNonManifoldPoints : Found : 0 non-manifold points (out of 34650)
Detected unsplittable baffles : 0

Merge refined boundary faces
----------------------------

Merging 0 sets of faces.

No faces merged ...

Merging all points on surface that
- are used by only two boundary faces and
- make an angle with a cosine of more than 0.707107.

No straight edges simplified and no points removed ...
Refined mesh : cells:25768  faces:86151  points:34650
Cells per refinement level:
    0	0
    1	0
    2	2368
    3	23400
Writing mesh to time constant
Wrote mesh in = 0.05 s.
Mesh refined in = 1.2 s.

Morphing phase
--------------

Duplicating 0 points on faceZones of type boundary
Snapping to features in 10 iterations ...
Constructing mesh displacer ...
Using mesh parameters 
{
    maxNonOrtho     65;
    maxBoundarySkewness 20;
    maxInternalSkewness 4;
    maxConcave      80;
    minFlatness     0.5;
    minVol          1e-13;
    minTetQuality   1e-30;
    minArea         -1;
    minTwist        0.02;
    minDeterminant  0.001;
    minFaceWeight   0.02;
    minVolRatio     0.01;
    minTriangleTwist -1;
    nSmoothScale    4;
    errorReduction  0.75;
}


Checking initial mesh ...
Checking faces in error :
    non-orthogonality > 65  degrees                        : 0
    faces with face pyramid volume < 1e-13                 : 0
    faces with face-decomposition tet quality < 1e-30      : 0
    faces with concavity > 80  degrees                     : 0
    faces with skewness > 4   (internal) or 20  (boundary) : 0
    faces with interpolation weights (0..1)  < 0.02        : 0
    faces with volume ratio of neighbour cells < 0.01      : 0
    faces with face twist < 0.02                           : 0
    faces on cells with determinant < 0.001                : 0
Detected 0 illegal faces (concave, zero area or negative cell pyramid volume)
Checked initial mesh in = 0.14 s


Smoothing patch points ...
Smoothing iteration 0
Found 0 non-manifold point(s).

Scaling iteration 0
Moving mesh using displacement scaling : min:1  max:1
Checking faces in error :
    non-orthogonality > 65  degrees                        : 0
    faces with face pyramid volume < 1e-13                 : 0
    faces with face-decomposition tet quality < 1e-30      : 0
    faces with concavity > 80  degrees                     : 0
    faces with skewness > 4   (internal) or 20  (boundary) : 0
    faces with interpolation weights (0..1)  < 0.02        : 0
    faces with volume ratio of neighbour cells < 0.01      : 0
    faces with face twist < 0.02                           : 0
    faces on cells with determinant < 0.001                : 0
Successfully moved mesh

Smoothing iteration 1
Found 0 non-manifold point(s).

Scaling iteration 0
Moving mesh using displacement scaling : min:1  max:1
Checking faces in error :
    non-orthogonality > 65  degrees                        : 0
    faces with face pyramid volume < 1e-13                 : 0
    faces with face-decomposition tet quality < 1e-30      : 0
    faces with concavity > 80  degrees                     : 0
    faces with skewness > 4   (internal) or 20  (boundary) : 0
    faces with interpolation weights (0..1)  < 0.02        : 0
    faces with volume ratio of neighbour cells < 0.01      : 0
    faces with face twist < 0.02                           : 0
    faces on cells with determinant < 0.001                : 0
Successfully moved mesh

Smoothing iteration 2
Found 0 non-manifold point(s).

Scaling iteration 0
Moving mesh using displacement scaling : min:1  max:1
Checking faces in error :
    non-orthogonality > 65  degrees                        : 0
    faces with face pyramid volume < 1e-13                 : 0
    faces with face-decomposition tet quality < 1e-30      : 0
    faces with concavity > 80  degrees                     : 0
    faces with skewness > 4   (internal) or 20  (boundary) : 0
    faces with interpolation weights (0..1)  < 0.02        : 0
    faces with volume ratio of neighbour cells < 0.01      : 0
    faces with face twist < 0.02                           : 0
    faces on cells with determinant < 0.001                : 0
Successfully moved mesh

Patch points smoothed in = 0.16 s



Morph iteration 0
-----------------
Calculating patchDisplacement as distance to nearest surface point ...
    non-zone points : attract to nearest of all non-zone surfaces
    zone points     : attract to zone surface only

Wanted displacement : average:0.0802276 min:0.00687052 max:0.194967
Calculated surface displacement in = 0 s


Detecting near surfaces ...
Overriding nearest with intersection of close gaps at 0 out of 11354 points.
Overriding displacement on features :
   implicit features    : false
   explicit features    : true
   multi-patch features : false

Detected 0 baffle edges out of 22704 edges.
Baffle points     : 0 of which attracted to :
    feature point : 0
    feature edge  : 0
    rest          : 0

Initially selected 160 mesh points out of 11354 for reverse attraction.
Selected 464 mesh points out of 11354 for reverse attraction.
Stringing feature edges : changed 0 points
Attraction:
    linear   : max:(-0.101662 -0.166363 0) avg:(1.44639e-17 3.75977e-05 -2.81731e-16)
    feature  : max:(0.310992 0.179424 0.066847) avg:(-5.07651e-07 1.64131e-06 -3.52555e-17)
Feature analysis : total master points :11354 of which attracted to :
    feature point   : 0
    feature edge    : 160
    nearest surface : 0
    rest            : 11194

--> FOAM Warning : Displacement (-5.83705e-06 -3.12749e-06 -0.0152499) at mesh point 20443 coord (-1 -0.5 100.153) points through the surrounding patch faces
Smoothing displacement ...
Iteration 0
Iteration 10
Iteration 20
Displacement smoothed in = 0.06 s


Moving mesh ...

Iteration 0
Moving mesh using displacement scaling : min:1  max:1
Checking faces in error :
    non-orthogonality > 65  degrees                        : 0
    faces with face pyramid volume < 1e-13                 : 0
    faces with face-decomposition tet quality < 1e-30      : 0
    faces with concavity > 80  degrees                     : 0
    faces with skewness > 4   (internal) or 20  (boundary) : 0
    faces with interpolation weights (0..1)  < 0.02        : 0
    faces with volume ratio of neighbour cells < 0.01      : 0
    faces with face twist < 0.02                           : 0
    faces on cells with determinant < 0.001                : 0
Successfully moved mesh
Moved mesh in = 0.05 s



Morph iteration 1
-----------------
Calculating patchDisplacement as distance to nearest surface point ...
    non-zone points : attract to nearest of all non-zone surfaces
    zone points     : attract to zone surface only

Wanted displacement : average:0.0744546 min:0.00166064 max:0.188787
Calculated surface displacement in = 0 s


Detecting near surfaces ...
Overriding nearest with intersection of close gaps at 0 out of 11354 points.
Overriding displacement on features :
   implicit features    : false
   explicit features    : true
   multi-patch features : false

Detected 0 baffle edges out of 22704 edges.
Baffle points     : 0 of which attracted to :
    feature point : 0
    feature edge  : 0
    rest          : 0

Initially selected 160 mesh points out of 11354 for reverse attraction.
Selected 464 mesh points out of 11354 for reverse attraction.
Stringing feature edges : changed 0 points
Attraction:
    linear   : max:(-0.0984399 0.16109 0) avg:(2.67165e-10 3.44511e-05 -6.88351e-09)
    feature  : max:(0.307882 0.177629 0.0601623) avg:(1.53519e-18 3.17166e-06 -3.86534e-17)
Feature analysis : total master points :11354 of which attracted to :
    feature point   : 0
    feature edge    : 160
    nearest surface : 0
    rest            : 11194

--> FOAM Warning : Displacement (-1.74911e-05 -9.4883e-06 -0.0276243) at mesh point 20443 coord (-1.00001 -0.500003 100.138) points through the surrounding patch faces
Smoothing displacement ...
Iteration 0
Iteration 10
Iteration 20
Displacement smoothed in = 0.06 s


Moving mesh ...

Iteration 0
Moving mesh using displacement scaling : min:1  max:1
Checking faces in error :
    non-orthogonality > 65  degrees                        : 0
    faces with face pyramid volume < 1e-13                 : 0
    faces with face-decomposition tet quality < 1e-30      : 0
    faces with concavity > 80  degrees                     : 0
    faces with skewness > 4   (internal) or 20  (boundary) : 0
    faces with interpolation weights (0..1)  < 0.02        : 0
    faces with volume ratio of neighbour cells < 0.01      : 0
    faces with face twist < 0.02                           : 0
    faces on cells with determinant < 0.001                : 0
Successfully moved mesh
Moved mesh in = 0.05 s



Morph iteration 2
-----------------
Calculating patchDisplacement as distance to nearest surface point ...
    non-zone points : attract to nearest of all non-zone surfaces
    zone points     : attract to zone surface only

Wanted displacement : average:0.0644878 min:0.00194845 max:0.17137
Calculated surface displacement in = 0 s


Detecting near surfaces ...
Overriding nearest with intersection of close gaps at 0 out of 11354 points.
Overriding displacement on features :
   implicit features    : false
   explicit features    : true
   multi-patch features : false

Detected 0 baffle edges out of 22704 edges.
Baffle points     : 0 of which attracted to :
    feature point : 0
    feature edge  : 0
    rest          : 0

Initially selected 160 mesh points out of 11354 for reverse attraction.
Selected 464 mesh points out of 11354 for reverse attraction.
Stringing feature edges : changed 0 points
Attraction:
    linear   : max:(-0.0893585 0.146229 0) avg:(-2.575e-10 2.91516e-05 -6.21673e-08)
    feature  : max:(0.295569 0.17052 0.0481298) avg:(1.1245e-18 3.04883e-06 -3.19016e-17)
Feature analysis : total master points :11354 of which attracted to :
    feature point   : 0
    feature edge    : 160
    nearest surface : 0
    rest            : 11194

--> FOAM Warning : Displacement (-0.00134861 -0.00719467 -0.00279264) at mesh point 5729 coord (-0.498493 -4.45116 100.096) points through the surrounding patch faces
Smoothing displacement ...
Iteration 0
Iteration 10
Iteration 20
Displacement smoothed in = 0.06 s


Moving mesh ...

Iteration 0
Moving mesh using displacement scaling : min:1  max:1
Checking faces in error :
    non-orthogonality > 65  degrees                        : 0
    faces with face pyramid volume < 1e-13                 : 0
    faces with face-decomposition tet quality < 1e-30      : 0
    faces with concavity > 80  degrees                     : 0
    faces with skewness > 4   (internal) or 20  (boundary) : 0
    faces with interpolation weights (0..1)  < 0.02        : 0
    faces with volume ratio of neighbour cells < 0.01      : 0
    faces with face twist < 0.02                           : 0
    faces on cells with determinant < 0.001                : 0
Successfully moved mesh
Moved mesh in = 0.05 s



Morph iteration 3
-----------------
Calculating patchDisplacement as distance to nearest surface point ...
    non-zone points : attract to nearest of all non-zone surfaces
    zone points     : attract to zone surface only

Wanted displacement : average:0.0525138 min:0.00556083 max:0.140018
Calculated surface displacement in = 0 s


Detecting near surfaces ...
Overriding nearest with intersection of close gaps at 0 out of 11354 points.
Overriding displacement on features :
   implicit features    : false
   explicit features    : true
   multi-patch features : false

Detected 0 baffle edges out of 22704 edges.
Baffle points     : 0 of which attracted to :
    feature point : 0
    feature edge  : 0
    rest          : 0

Initially selected 160 mesh points out of 11354 for reverse attraction.
Selected 464 mesh points out of 11354 for reverse attraction.
Stringing feature edges : changed 0 points
Attraction:
    linear   : max:(-0.0730105 0.119477 0) avg:(8.27196e-10 2.25364e-05 -2.37499e-07)
    feature  : max:(0.268974 0.155165 0.0336909) avg:(1.75031e-18 2.78353e-06 -2.63548e-17)
Feature analysis : total master points :11354 of which attracted to :
    feature point   : 0
    feature edge    : 160
    nearest surface : 0
    rest            : 11194

--> FOAM Warning : Displacement (-0.00336354 -0.00314273 -0.000115233) at mesh point 18935 coord (3.80722 3.31518 4.24971) points through the surrounding patch faces
Smoothing displacement ...
Iteration 0
Iteration 10
Iteration 20
Displacement smoothed in = 0.06 s


Moving mesh ...

Iteration 0
Moving mesh using displacement scaling : min:1  max:1
Checking faces in error :
    non-orthogonality > 65  degrees                        : 0
    faces with face pyramid volume < 1e-13                 : 0
    faces with face-decomposition tet quality < 1e-30      : 0
    faces with concavity > 80  degrees                     : 0
    faces with skewness > 4   (internal) or 20  (boundary) : 0
    faces with interpolation weights (0..1)  < 0.02        : 0
    faces with volume ratio of neighbour cells < 0.01      : 0
    faces with face twist < 0.02                           : 0
    faces on cells with determinant < 0.001                : 0
Successfully moved mesh
Moved mesh in = 0.05 s



Morph iteration 4
-----------------
Calculating patchDisplacement as distance to nearest surface point ...
    non-zone points : attract to nearest of all non-zone surfaces
    zone points     : attract to zone surface only

Wanted displacement : average:0.0393988 min:0.000609383 max:0.0961015
Calculated surface displacement in = 0 s


Detecting near surfaces ...
Overriding nearest with intersection of close gaps at 0 out of 11354 points.
Overriding displacement on features :
   implicit features    : false
   explicit features    : true
   multi-patch features : false

Detected 0 baffle edges out of 22704 edges.
Baffle points     : 0 of which attracted to :
    feature point : 0
    feature edge  : 0
    rest          : 0

Initially selected 160 mesh points out of 11354 for reverse attraction.
Selected 464 mesh points out of 11354 for reverse attraction.
Stringing feature edges : changed 0 points
Attraction:
    linear   : max:(-0.0501106 0.0820025 0) avg:(-1.1575e-09 1.5917e-05 -5.7708e-07)
    feature  : max:(0.225947 0.130324 0.0202145) avg:(1.56941e-18 2.35433e-06 -1.58994e-17)
Feature analysis : total master points :11354 of which attracted to :
    feature point   : 0
    feature edge    : 160
    nearest surface : 0
    rest            : 11194

--> FOAM Warning : Displacement (-0.00033124 0.000857212 -0.000177849) at mesh point 666 coord (-0.960261 -4.9249 3.49859) points through the surrounding patch faces
Smoothing displacement ...
Iteration 0
Iteration 10
Iteration 20
Displacement smoothed in = 0.06 s


Moving mesh ...

Iteration 0
Moving mesh using displacement scaling : min:1  max:1
Checking faces in error :
    non-orthogonality > 65  degrees                        : 0
    faces with face pyramid volume < 1e-13                 : 0
    faces with face-decomposition tet quality < 1e-30      : 0
    faces with concavity > 80  degrees                     : 0
    faces with skewness > 4   (internal) or 20  (boundary) : 0
    faces with interpolation weights (0..1)  < 0.02        : 0
    faces with volume ratio of neighbour cells < 0.01      : 0
    faces with face twist < 0.02                           : 0
    faces on cells with determinant < 0.001                : 0
Successfully moved mesh
Moved mesh in = 0.05 s



Morph iteration 5
-----------------
Calculating patchDisplacement as distance to nearest surface point ...
    non-zone points : attract to nearest of all non-zone surfaces
    zone points     : attract to zone surface only

Wanted displacement : average:0.0261355 min:6.60886e-06 max:0.062366
Calculated surface displacement in = 0 s


Detecting near surfaces ...
Overriding nearest with intersection of close gaps at 0 out of 11354 points.
Overriding displacement on features :
   implicit features    : false
   explicit features    : true
   multi-patch features : false

Detected 0 baffle edges out of 22704 edges.
Baffle points     : 0 of which attracted to :
    feature point : 0
    feature edge  : 0
    rest          : 0

Initially selected 160 mesh points out of 11354 for reverse attraction.
Selected 464 mesh points out of 11354 for reverse attraction.
Stringing feature edges : changed 0 points
Attraction:
    linear   : max:(4.44089e-16 0 -0.062366) avg:(1.71367e-09 1.02116e-05 -9.89422e-07)
    feature  : max:(0.169475 0.0977198 0.0101073) avg:(1.39829e-18 1.791e-06 -1.41687e-17)
Feature analysis : total master points :11354 of which attracted to :
    feature point   : 0
    feature edge    : 160
    nearest surface : 0
    rest            : 11194

--> FOAM Warning : Displacement (0.000550095 0.00495822 -2.65299e-05) at mesh point 666 coord (-0.960593 -4.92404 3.49842) points through the surrounding patch faces
Smoothing displacement ...
Iteration 0
Iteration 10
Iteration 20
Displacement smoothed in = 0.06 s


Moving mesh ...

Iteration 0
Moving mesh using displacement scaling : min:1  max:1
Checking faces in error :
    non-orthogonality > 65  degrees                        : 0
    faces with face pyramid volume < 1e-13                 : 0
    faces with face-decomposition tet quality < 1e-30      : 0
    faces with concavity > 80  degrees                     : 0
    faces with skewness > 4   (internal) or 20  (boundary) : 0
    faces with interpolation weights (0..1)  < 0.02        : 0
    faces with volume ratio of neighbour cells < 0.01      : 0
    faces with face twist < 0.02                           : 0
    faces on cells with determinant < 0.001                : 0
Successfully moved mesh
Moved mesh in = 0.05 s



Morph iteration 6
-----------------
Calculating patchDisplacement as distance to nearest surface point ...
    non-zone points : attract to nearest of all non-zone surfaces
    zone points     : attract to zone surface only

Wanted displacement : average:0.0147564 min:2.53012e-05 max:0.0331951
Calculated surface displacement in = 0 s


Detecting near surfaces ...
Overriding nearest with intersection of close gaps at 0 out of 11354 points.
Overriding displacement on features :
   implicit features    : false
   explicit features    : true
   multi-patch features : false

Detected 0 baffle edges out of 22704 edges.
Baffle points     : 0 of which attracted to :
    feature point : 0
    feature edge  : 0
    rest          : 0

Initially selected 160 mesh points out of 11354 for reverse attraction.
Selected 464 mesh points out of 11354 for reverse attraction.
Stringing feature edges : changed 0 points
Attraction:
    linear   : max:(0.0248891 0.0219647 0) avg:(-2.00944e-09 5.78104e-06 -1.20486e-06)
    feature  : max:(-0.101395 0.0734863 -0.0040429) avg:(8.80043e-19 5.29591e-07 1.91043e-18)
Feature analysis : total master points :11354 of which attracted to :
    feature point   : 0
    feature edge    : 160
    nearest surface : 0
    rest            : 11194

--> FOAM Warning : Displacement (0.000920439 0.00614568 7.02392e-05) at mesh point 666 coord (-0.960042 -4.91908 3.49839) points through the surrounding patch faces
Smoothing displacement ...
Iteration 0
Iteration 10
Iteration 20
Displacement smoothed in = 0.06 s


Moving mesh ...

Iteration 0
Moving mesh using displacement scaling : min:1  max:1
Checking faces in error :
    non-orthogonality > 65  degrees                        : 0
    faces with face pyramid volume < 1e-13                 : 0
    faces with face-decomposition tet quality < 1e-30      : 0
    faces with concavity > 80  degrees                     : 0
    faces with skewness > 4   (internal) or 20  (boundary) : 0
    faces with interpolation weights (0..1)  < 0.02        : 0
    faces with volume ratio of neighbour cells < 0.01      : 0
    faces with face twist < 0.02                           : 0
    faces on cells with determinant < 0.001                : 0
Successfully moved mesh
Moved mesh in = 0.05 s



Morph iteration 7
-----------------
Calculating patchDisplacement as distance to nearest surface point ...
    non-zone points : attract to nearest of all non-zone surfaces
    zone points     : attract to zone surface only

Wanted displacement : average:0.00689825 min:3.77429e-06 max:0.0209126
Calculated surface displacement in = 0.01 s


Detecting near surfaces ...
Overriding nearest with intersection of close gaps at 0 out of 11354 points.
Overriding displacement on features :
   implicit features    : false
   explicit features    : true
   multi-patch features : false

Detected 0 baffle edges out of 22704 edges.
Baffle points     : 0 of which attracted to :
    feature point : 0
    feature edge  : 0
    rest          : 0

Initially selected 160 mesh points out of 11354 for reverse attraction.
Selected 464 mesh points out of 11354 for reverse attraction.
Stringing feature edges : changed 0 points
Attraction:
    linear   : max:(0.0205948 -0.00363144 0) avg:(1.84799e-09 2.66659e-06 -9.70884e-07)
    feature  : max:(-0.0515845 0.0376744 -0.00121287) avg:(8.48264e-19 3.15207e-07 1.01129e-17)
Feature analysis : total master points :11354 of which attracted to :
    feature point   : 0
    feature edge    : 160
    nearest surface : 0
    rest            : 11194

--> FOAM Warning : Displacement (-0.000187634 0.000482943 0.00143345) at mesh point 18810 coord (2.36981 -4.40686 1.99066) points through the surrounding patch faces
Smoothing displacement ...
Iteration 0
Iteration 10
Iteration 20
Displacement smoothed in = 0.05 s


Moving mesh ...

Iteration 0
Moving mesh using displacement scaling : min:1  max:1
Checking faces in error :
    non-orthogonality > 65  degrees                        : 0
    faces with face pyramid volume < 1e-13                 : 0
    faces with face-decomposition tet quality < 1e-30      : 0
    faces with concavity > 80  degrees                     : 0
    faces with skewness > 4   (internal) or 20  (boundary) : 0
    faces with interpolation weights (0..1)  < 0.02        : 0
    faces with volume ratio of neighbour cells < 0.01      : 0
    faces with face twist < 0.02                           : 0
    faces on cells with determinant < 0.001                : 0
Successfully moved mesh
Moved mesh in = 0.05 s



Morph iteration 8
-----------------
Calculating patchDisplacement as distance to nearest surface point ...
    non-zone points : attract to nearest of all non-zone surfaces
    zone points     : attract to zone surface only

Wanted displacement : average:0.00258691 min:1.89473e-05 max:0.0209389
Calculated surface displacement in = 0.01 s


Detecting near surfaces ...
Overriding nearest with intersection of close gaps at 0 out of 11354 points.
Overriding displacement on features :
   implicit features    : false
   explicit features    : true
   multi-patch features : false

Detected 0 baffle edges out of 22704 edges.
Baffle points     : 0 of which attracted to :
    feature point : 0
    feature edge  : 0
    rest          : 0

Initially selected 160 mesh points out of 11354 for reverse attraction.
Selected 464 mesh points out of 11354 for reverse attraction.
Stringing feature edges : changed 0 points
Attraction:
    linear   : max:(0.0175892 0.0113603 0) avg:(1.32544e-06 8.31792e-07 -4.98974e-07)
    feature  : max:(0.018405 0.0138189 -0.000242574) avg:(9.48491e-19 1.72329e-07 1.24799e-17)
Feature analysis : total master points :11354 of which attracted to :
    feature point   : 0
    feature edge    : 160
    nearest surface : 0
    rest            : 11194

--> FOAM Warning : Displacement (0.000434819 0.00126266 0.000774497) at mesh point 8491 coord (-2.03834 -4.56837 1.99305) points through the surrounding patch faces
Smoothing displacement ...
Iteration 0
Iteration 10
Iteration 20
Displacement smoothed in = 0.06 s


Moving mesh ...

Iteration 0
Moving mesh using displacement scaling : min:1  max:1
Checking faces in error :
    non-orthogonality > 65  degrees                        : 0
    faces with face pyramid volume < 1e-13                 : 0
    faces with face-decomposition tet quality < 1e-30      : 0
    faces with concavity > 80  degrees                     : 0
    faces with skewness > 4   (internal) or 20  (boundary) : 0
    faces with interpolation weights (0..1)  < 0.02        : 0
    faces with volume ratio of neighbour cells < 0.01      : 0
    faces with face twist < 0.02                           : 0
    faces on cells with determinant < 0.001                : 0
Successfully moved mesh
Moved mesh in = 0.05 s



Morph iteration 9
-----------------
Calculating patchDisplacement as distance to nearest surface point ...
    non-zone points : attract to nearest of all non-zone surfaces
    zone points     : attract to zone surface only

Wanted displacement : average:0.000653646 min:5.17198e-07 max:0.00987858
Calculated surface displacement in = 0 s


Detecting near surfaces ...
Overriding nearest with intersection of close gaps at 0 out of 11354 points.
Overriding displacement on features :
   implicit features    : false
   explicit features    : true
   multi-patch features : false

Detected 0 baffle edges out of 22704 edges.
Baffle points     : 0 of which attracted to :
    feature point : 0
    feature edge  : 0
    rest          : 0

Initially selected 160 mesh points out of 11354 for reverse attraction.
Selected 464 mesh points out of 11354 for reverse attraction.
Stringing feature edges : changed 0 points
Attraction:
    linear   : max:(0.00515103 0.00842931 0) avg:(-1.33067e-06 1.27897e-07 -1.51715e-07)
    feature  : max:(-0.0032879 -0.00294926 -2.42574e-05) avg:(-1.21991e-07 1.0627e-07 1.141e-17)
Feature analysis : total master points :11354 of which attracted to :
    feature point   : 0
    feature edge    : 160
    nearest surface : 0
    rest            : 11194

--> FOAM Warning : Displacement (0.000101348 0.000240424 0) at mesh point 18870 coord (-2.03683 -4.56608 2.74757) points through the surrounding patch faces
Smoothing displacement ...
Iteration 0
Iteration 10
Iteration 20
Displacement smoothed in = 0.05 s


Moving mesh ...

Iteration 0
Moving mesh using displacement scaling : min:1  max:1
Checking faces in error :
    non-orthogonality > 65  degrees                        : 0
    faces with face pyramid volume < 1e-13                 : 0
    faces with face-decomposition tet quality < 1e-30      : 0
    faces with concavity > 80  degrees                     : 0
    faces with skewness > 4   (internal) or 20  (boundary) : 0
    faces with interpolation weights (0..1)  < 0.02        : 0
    faces with volume ratio of neighbour cells < 0.01      : 0
    faces with face twist < 0.02                           : 0
    faces on cells with determinant < 0.001                : 0
Successfully moved mesh
Moved mesh in = 0.05 s


Repatching faces according to nearest surface ...
Repatched 0 faces in = 0.02 s


Edge intersection testing:
    Number of edges             : 86151
    Number of edges to retest   : 34760
    Number of intersected edges : 11352
Merging 3216 sets of faces.

Edge intersection testing:
    Number of edges             : 82935
    Number of edges to retest   : 12888
    Number of intersected edges : 8136

Undo iteration 0
----------------
Checking faces in error :
    non-orthogonality > 65  degrees                        : 0
    faces with face pyramid volume < 1e-13                 : 0
    faces with face-decomposition tet quality < 1e-30      : 0
    faces with concavity > 80  degrees                     : 0
    faces with skewness > 4   (internal) or 20  (boundary) : 0
    faces with interpolation weights (0..1)  < 0.02        : 0
    faces with volume ratio of neighbour cells < 0.01      : 0
    faces with face twist < 0.02                           : 0
    faces on cells with determinant < 0.001                : 0

Merging all points on surface that
- are used by only two boundary faces and
- make an angle with a cosine of more than 0.5.

Removing 3240 straight edge points ...

Edge intersection testing:
    Number of edges             : 82935
    Number of edges to retest   : 12888
    Number of intersected edges : 8136

Undo iteration 0
----------------
Checking faces in error :
    non-orthogonality > 65  degrees                        : 0
    faces with face pyramid volume < 1e-13                 : 0
    faces with face-decomposition tet quality < 1e-30      : 0
    faces with concavity > 80  degrees                     : 0
    faces with skewness > 4   (internal) or 20  (boundary) : 0
    faces with interpolation weights (0..1)  < 0.02        : 0
    faces with volume ratio of neighbour cells < 0.01      : 0
    faces with face twist < 0.02                           : 0
    faces on cells with determinant < 0.001                : 0
Snapped mesh : cells:25768  faces:82935  points:31410
Cells per refinement level:
    0	0
    1	0
    2	2368
    3	23400
Writing mesh to time constant
Wrote mesh in = 0.05 s.
Mesh snapped in = 1.62 s.
Layer specification as
- final layer thickness ('finalLayerThickness')
- expansion ratio ('expansionRatio')

Shrinking and layer addition phase
----------------------------------

Using mesh parameters 
{
    maxNonOrtho     65;
    maxBoundarySkewness 20;
    maxInternalSkewness 4;
    maxConcave      80;
    minFlatness     0.5;
    minVol          1e-13;
    minTetQuality   1e-30;
    minArea         -1;
    minTwist        0.02;
    minDeterminant  0.001;
    minFaceWeight   0.02;
    minVolRatio     0.01;
    minTriangleTwist -1;
    nSmoothScale    4;
    errorReduction  0.75;
}



Merging all faces of a cell
---------------------------
    - which are on the same patch
    - which make an angle < 60 degrees (cos:0.5)
    - as long as the resulting face doesn't become concave by more than 90 degrees
      (0=straight, 180=fully concave)

Merging 0 sets of faces.

No faces merged ...

Merging all points on surface that
- are used by only two boundary faces and
- make an angle with a cosine of more than 0.5.

No straight edges simplified and no points removed ...

Checking mesh manifoldness ...

Checking initial mesh ...
Checking faces in error :
    non-orthogonality > 65  degrees                        : 0
    faces with face pyramid volume < 1e-13                 : 0
    faces with face-decomposition tet quality < 1e-30      : 0
    faces with concavity > 80  degrees                     : 0
    faces with skewness > 4   (internal) or 20  (boundary) : 0
    faces with interpolation weights (0..1)  < 0.02        : 0
    faces with volume ratio of neighbour cells < 0.01      : 0
    faces with face twist < 0.02                           : 0
    faces on cells with determinant < 0.001                : 0
Detected 0 illegal faces (concave, zero area or negative cell pyramid volume)
Duplicating 0 points on faceZones of type boundary

Handling points with inconsistent layer specification ...
dupNonManifoldPoints : Found : 0 non-manifold points (out of 31410)

Handling points with inconsistent layer specification ...

Handling non-manifold points ...

Checking patch manifoldness ...
Outside of local patch is multiply connected across edges or points at 0 points.
Set displacement to zero for all 0 non-manifold points

Handling feature edges (angle < 60) ...
Set displacement to zero for points on 0 feature edges

Handling cells with warped patch faces ...
Set displacement to zero on 0 warped faces since layer would be > 0.5 of the size of the bounding box.

patch faces    layers avg thickness[m]
                     near-wall overall
----- -----    ------ --------- -------
wall 7504     5      0.15      0.75    


Outer iteration : 0
-------------------

Adding in total 0 inter-processor patches to handle extrusion of non-manifold processor boundaries.
Selecting externalDisplacementMeshMover displacementMedialAxis
displacementMedialAxis : Calculating distance to Medial Axis ...
fieldSmoother : Smoothing normals ...
    Iteration 0   residual 0.0131452
displacementMedialAxis : Inserting points on patch movingWall if angle to nearest layer patch > 30 degrees.
displacementMedialAxis : Inserting points on patch fixedWalls if angle to nearest layer patch > 30 degrees.
displacementMedialAxis : Inserting points on patch frontAndBack if angle to nearest layer patch > 30 degrees.
displacementMedialAxis : Inserting points on patch topPatch if angle to nearest layer patch > 30 degrees.
displacementMedialAxis : Inserting points on patch bottomPatch if angle to nearest layer patch > 30 degrees.
fieldSmoother : Smoothing normals in interior ...
    Iteration 0   residual 0.0410408

Layer addition iteration 0
--------------------------

Determining displacement for added points according to pointNormal ...
Detected 0 points with point normal pointing through faces.
Reset displacement at 0 points to average of surrounding points.

displacementMedialAxis : Smoothing using Medial Axis ...
displacementMedialAxis : Reducing layer thickness at 0 nodes where thickness to medial axis distance is large 
displacementMedialAxis : Removing isolated regions ...
- if partially extruded faces make angle < 30
- if exclusively surrounded by non-extruded faces
displacementMedialAxis : Number of isolated points extrusion stopped : 0
fieldSmoother : Smoothing field ...
    Iteration 0   residual 7.18367e-09
displacementMedialAxis : Moving mesh ...
displacementMedialAxis : Iteration 0
Moving mesh using displacement scaling : min:1  max:1
Checking faces in error :
    non-orthogonality > 65  degrees                        : 0
    faces with face pyramid volume < 1e-13                 : 0
    faces with face-decomposition tet quality < 1e-30      : 0
    faces with concavity > 80  degrees                     : 0
    faces with skewness > 4   (internal) or 20  (boundary) : 0
    faces with interpolation weights (0..1)  < 0.02        : 0
    faces with volume ratio of neighbour cells < 0.01      : 0
    faces with face twist < 0.02                           : 0
    faces on cells with determinant < 0.001                : 0
displacementMedialAxis : Successfully moved mesh
displacementMedialAxis : Finished moving mesh ...
truncateDisplacement : Unextruded 0 faces due to non-consecutive vertices being extruded.
truncateDisplacement : Unextruded 0 faces due to stringed edges with inconsistent extrusion.

Setting up information for layer truncation ...
Detected 0 baffles across faceZones of type internal


Checking mesh with layer ...
Checking faces in error :
    non-orthogonality > 65  degrees                        : 0
    faces with face pyramid volume < 1e-13                 : 0
    faces with face-decomposition tet quality < 1e-30      : 0
    faces with concavity > 80  degrees                     : 0
    faces with skewness > 4   (internal) or 20  (boundary) : 0
    faces with interpolation weights (0..1)  < 0.02        : 0
    faces with volume ratio of neighbour cells < 0.01      : 0
    faces with face twist < 0.02                           : 0
    faces on cells with determinant < 0.001                : 0
Detected 0 illegal faces (concave, zero area or negative cell pyramid volume)
Extruding 7504 out of 7504 faces (100%). Removed extrusion at 0 faces.
Added 37520 out of 37520 cells (100%).
Edge intersection testing:
    Number of edges             : 195775
    Number of edges to retest   : 0
    Number of intersected edges : 46216
Mesh with layers : cells:63288  faces:195775  points:69210

patch faces        layers        overall thickness
              target   mesh     [m]       [%]
----- -----    -----    ----     ---       ---
wall 7504     5        5        0.75      100     

Layer mesh : cells:63288  faces:195775  points:69210
Cells per refinement level:
    0	0
    1	0
    2	2368
    3	60920
Writing mesh to time constant
Wrote mesh in = 0.11 s.
Layers added in = 0.58 s.
Checking final mesh ...
Checking faces in error :
    non-orthogonality > 65  degrees                        : 0
    faces with face pyramid volume < 1e-13                 : 0
    faces with face-decomposition tet quality < 1e-30      : 0
    faces with concavity > 80  degrees                     : 0
    faces with skewness > 4   (internal) or 20  (boundary) : 0
    faces with interpolation weights (0..1)  < 0.02        : 0
    faces with volume ratio of neighbour cells < 0.01      : 0
    faces with face twist < 0.02                           : 0
    faces on cells with determinant < 0.001                : 0
Finished meshing without any errors
Finished meshing in = 3.5 s.
End

