/*---------------------------------------------------------------------------*\
| =========                 |                                                 |
| \\      /  F ield         | OpenFOAM: The Open Source CFD Toolbox           |
|  \\    /   O peration     | Version:  2312                                  |
|   \\  /    A nd           | Website:  www.openfoam.com                      |
|    \\/     M anipulation  |                                                 |
\*---------------------------------------------------------------------------*/
Build  : _c39a0f64-20231220 OPENFOAM=2312 version=2312
Arch   : "LSB;label=32;scalar=64"
Exec   : surfaceFeatureExtract
Date   : Jun 04 2024
Time   : 18:41:32
Host   : YanD
PID    : 128774
I/O    : uncollated
Case   : /home/yand/OpenFOAM/yand-v2312/run/github/yand_openfoam/test/multiple_pimpleFoam_snappyPttches
nProcs : 1
trapFpe: Floating point exception trapping enabled (FOAM_SIGFPE).
fileModificationChecking : Monitoring run-time modified files using timeStampMaster (fileModificationSkew 5, maxFileModificationPolls 20)
allowSystemOperations : Allowing user-supplied system call operations

// * * * * * * * * * * * * * * * * * * * * * * * * * * * * * * * * * * * * * //
Create time


Note: Feature line extraction only valid on closed manifold surfaces

Reading surfaceFeatureExtractDict

Surfaces     : cylinder.obj
Output       : cylinder
Load options : offset
Write options: writeObj=yes writeVTK=off

Statistics:
Triangles    : 500 in 1 region(s)
Vertices     : 252
Bounding Box : (-5 -4.99845 0) (5 4.99845 100)

Constructing feature set from included angle 150
Selecting edges based purely on geometric tests: no

Initial Feature set:
    points : 0
    edges  : 252
    of which
        region edges   : 0
        external edges : 252
        internal edges : 0

Final Feature set:
    points : 252
    of which
        convex             : 0
        concave            : 0
        mixed              : 0
        non-feature        : 252
    edges  : 252
    of which
        external edges     : 252
        internal edges     : 0
        flat edges         : 0
        open edges         : 0
        multiply connected : 0

Writing extendedFeatureEdgeMesh to "/home/yand/OpenFOAM/yand-v2312/run/github/yand_openfoam/test/multiple_pimpleFoam_snappyPttches/constant/extendedFeatureEdgeMesh/cylinder.extendedFeatureEdgeMesh"

Writing extendedEdgeMesh components to "/home/yand/OpenFOAM/yand-v2312/run/github/yand_openfoam/test/multiple_pimpleFoam_snappyPttches/constant/extendedFeatureEdgeMesh/cylinder"
Writing 0 convex feature points to "/home/yand/OpenFOAM/yand-v2312/run/github/yand_openfoam/test/multiple_pimpleFoam_snappyPttches/constant/extendedFeatureEdgeMesh/cylinder_convexFeaturePts.obj"
Writing 0 concave feature points to "/home/yand/OpenFOAM/yand-v2312/run/github/yand_openfoam/test/multiple_pimpleFoam_snappyPttches/constant/extendedFeatureEdgeMesh/cylinder_concaveFeaturePts.obj"
Writing 0 mixed feature points to "/home/yand/OpenFOAM/yand-v2312/run/github/yand_openfoam/test/multiple_pimpleFoam_snappyPttches/constant/extendedFeatureEdgeMesh/cylinder_mixedFeaturePts.obj"
Writing 0 mixed feature point structure to "/home/yand/OpenFOAM/yand-v2312/run/github/yand_openfoam/test/multiple_pimpleFoam_snappyPttches/constant/extendedFeatureEdgeMesh/cylinder_mixedFeaturePtsStructure.obj"
Writing 252 external edges to "/home/yand/OpenFOAM/yand-v2312/run/github/yand_openfoam/test/multiple_pimpleFoam_snappyPttches/constant/extendedFeatureEdgeMesh/cylinder_externalEdges.obj"
Writing 0 internal edges to "/home/yand/OpenFOAM/yand-v2312/run/github/yand_openfoam/test/multiple_pimpleFoam_snappyPttches/constant/extendedFeatureEdgeMesh/cylinder_internalEdges.obj"
Writing 0 flat edges to "/home/yand/OpenFOAM/yand-v2312/run/github/yand_openfoam/test/multiple_pimpleFoam_snappyPttches/constant/extendedFeatureEdgeMesh/cylinder_flatEdges.obj"
Writing 0 open edges to "/home/yand/OpenFOAM/yand-v2312/run/github/yand_openfoam/test/multiple_pimpleFoam_snappyPttches/constant/extendedFeatureEdgeMesh/cylinder_openEdges.obj"
Writing 0 multiple edges to "/home/yand/OpenFOAM/yand-v2312/run/github/yand_openfoam/test/multiple_pimpleFoam_snappyPttches/constant/extendedFeatureEdgeMesh/cylinder_multipleEdges.obj"
Writing 0 region edges to "/home/yand/OpenFOAM/yand-v2312/run/github/yand_openfoam/test/multiple_pimpleFoam_snappyPttches/constant/extendedFeatureEdgeMesh/cylinder_regionEdges.obj"
Writing 252 edge directions to "/home/yand/OpenFOAM/yand-v2312/run/github/yand_openfoam/test/multiple_pimpleFoam_snappyPttches/constant/extendedFeatureEdgeMesh/cylinder_edgeDirections.obj"

Writing featureEdgeMesh to "/home/yand/OpenFOAM/yand-v2312/run/github/yand_openfoam/test/multiple_pimpleFoam_snappyPttches/constant/triSurface/cylinder.eMesh"
ExecutionTime = 0 s  ClockTime = 0 s

End

