/*---------------------------------------------------------------------------*\
| =========                 |                                                 |
| \\      /  F ield         | OpenFOAM: The Open Source CFD Toolbox           |
|  \\    /   O peration     | Version:                                        |
|   \\  /    A nd           | Website:  www.openfoam.com                      |
|    \\/     M anipulation  |                                                 |
\*---------------------------------------------------------------------------*/
Build  : OPENFOAM=1912 patch=200626
Arch   : "LSB;label=32;scalar=64"
Exec   : createPatch -overwrite
Date   : Apr 07 2024
Time   : 12:06:25
Host   : YanD
PID    : 52894
I/O    : uncollated
Case   : /home/yand/OpenFOAM/yand-v2312/run/snappy_pipe
nProcs : 1
trapFpe: Floating point exception trapping enabled (FOAM_SIGFPE).
fileModificationChecking : Monitoring run-time modified files using timeStampMaster (fileModificationSkew 5, maxFileModificationPolls 20)
allowSystemOperations : Allowing user-supplied system call operations

// * * * * * * * * * * * * * * * * * * * * * * * * * * * * * * * * * * * * * //
Create time

Create polyMesh for time = 0

Reading "system/createPatchDict"

Adding new patch topPatch as patch 1 from 
{
    type            patch;
}

Adding new patch wall as patch 2 from 
{
    type            wall;
}

Adding new patch bottomPatch as patch 3 from 
{
    type            patch;
}


Read 9038 faces from faceSet topPatch
Read 50470 faces from faceSet wall
Read 9038 faces from faceSet bottomPatch

Doing topology modification to order faces.

Not synchronising points.

Removing patches with no faces in them.

Removing zero-sized patch cylinder type wall at position 0
Removing patches.
Writing repatched mesh to 0

End

