/*---------------------------------------------------------------------------*\
| =========                 |                                                 |
| \\      /  F ield         | OpenFOAM: The Open Source CFD Toolbox           |
|  \\    /   O peration     | Version:  2312                                  |
|   \\  /    A nd           | Website:  www.openfoam.com                      |
|    \\/     M anipulation  |                                                 |
\*---------------------------------------------------------------------------*/
Build  : _c39a0f64-20231220 OPENFOAM=2312 version=2312
Arch   : "LSB;label=32;scalar=64"
Exec   : topoSet -parallel
Date   : May 06 2024
Time   : 15:25:51
Host   : YanD
PID    : 30243
I/O    : uncollated
Case   : /home/yand/OpenFOAM/yand-v2312/run/yand_openfoam/pimpleFoam_pipe
nProcs : 4
Hosts  :
(
    (YanD 4)
)
Pstream initialized with:
    floatTransfer      : false
    nProcsSimpleSum    : 0
    nonBlockingExchange: 0 (tuning: 0)
    exchange algorithm : 0
    commsType          : nonBlocking
    polling iterations : 0
trapFpe: Floating point exception trapping enabled (FOAM_SIGFPE).
fileModificationChecking : Monitoring run-time modified files using timeStampMaster (fileModificationSkew 5, maxFileModificationPolls 20)
allowSystemOperations : Allowing user-supplied system call operations

// * * * * * * * * * * * * * * * * * * * * * * * * * * * * * * * * * * * * * //
Create time

Create polyMesh for time = 0

Reading topoSetDict

Time = 0
    mesh not changed.
Created faceSet cylinder
    Applying source patchToFace
    Adding all faces of patches: (cylinder) ...
    Found matching patch cylinder with 49584 faces
    faceSet cylinder now size 49584
Created faceSet bottom_patch_nagetive
    Applying source boxToFace
    Adding faces with centre within boxes 1((-0.6 -0.6 0.01) (0.6 0.6 41))
    faceSet bottom_patch_nagetive now size 546458
Created faceSet top_patch_nagetive
    Applying source boxToFace
    Adding faces with centre within boxes 1((-0.6 -0.6 -1) (0.6 0.6 39.99))
    faceSet top_patch_nagetive now size 546458
Created faceSet bottomPatch
    Applying source faceToFace
    Adding all elements of face sets: (cylinder)
    faceSet bottomPatch now size 49584
Read set faceSet bottomPatch size:49584
    Applying source faceToFace
    Removing all elements of face sets: (bottom_patch_nagetive)
    faceSet bottomPatch now size 1768
Created faceSet topPatch
    Applying source faceToFace
    Adding all elements of face sets: (cylinder)
    faceSet topPatch now size 49584
Read set faceSet topPatch size:49584
    Applying source faceToFace
    Removing all elements of face sets: (top_patch_nagetive)
    faceSet topPatch now size 1768
Created faceSet wall
    Applying source faceToFace
    Adding all elements of face sets: (cylinder)
    faceSet wall now size 49584
Read set faceSet wall size:49584
    Applying source faceToFace
    Removing all elements of face sets: (bottomPatch)
    faceSet wall now size 47816
Read set faceSet wall size:47816
    Applying source faceToFace
    Removing all elements of face sets: (topPatch)
    faceSet wall now size 46048

End

Finalising parallel run
