/*---------------------------------------------------------------------------*\
| =========                 |                                                 |
| \\      /  F ield         | OpenFOAM: The Open Source CFD Toolbox           |
|  \\    /   O peration     | Version:  2312                                  |
|   \\  /    A nd           | Website:  www.openfoam.com                      |
|    \\/     M anipulation  |                                                 |
\*---------------------------------------------------------------------------*/
Build  : _c39a0f64-20231220 OPENFOAM=2312 version=2312
Arch   : "LSB;label=32;scalar=64"
Exec   : snappyHexMesh -parallel -overwrite
Date   : May 06 2024
Time   : 15:25:32
Host   : YanD
PID    : 30150
I/O    : uncollated
Case   : /home/yand/OpenFOAM/yand-v2312/run/yand_openfoam/pimpleFoam_pipe
nProcs : 4
Hosts  :
(
    (YanD 4)
)
Pstream initialized with:
    floatTransfer      : false
    nProcsSimpleSum    : 0
    nonBlockingExchange: 0 (tuning: 0)
    exchange algorithm : 0
    commsType          : nonBlocking
    polling iterations : 0
trapFpe: Floating point exception trapping enabled (FOAM_SIGFPE).
fileModificationChecking : Monitoring run-time modified files using timeStampMaster (fileModificationSkew 5, maxFileModificationPolls 20)
allowSystemOperations : Allowing user-supplied system call operations

// * * * * * * * * * * * * * * * * * * * * * * * * * * * * * * * * * * * * * //
Create time

Create mesh for time = 0

Read mesh in = 0.01 s

Overall mesh bounding box  : (-1 -1 -1) (1 1 41)
Relative tolerance         : 1e-06
Absolute matching distance : 4.20951e-05

Reading refinement surfaces.
Read refinement surfaces in = 0 s

Reading refinement shells.
Refinement level 3 for all cells inside bottomPatchBox
Refinement level 3 for all cells inside topPatchBox
Read refinement shells in = 0 s

Setting refinement level of surface to be consistent with shells.
For geometry cylinder.stl detected 0 uncached triangles out of 476
Checked shell refinement in = 0 s

Reading features.
Read features in = 0 s


Determining initial surface intersections
-----------------------------------------

Edge intersection testing:
    Number of edges             : 8525
    Number of edges to retest   : 0
    Number of intersected edges : 0
Edge intersection testing:
    Number of edges             : 8525
    Number of edges to retest   : 8525
    Number of intersected edges : 1162
Calculated surface intersections in = 0 s

Initial mesh : cells:2500  faces:8525  points:3636  unbalance:0
Cells per refinement level:
    0	2500
Setting refinement level of surface to be consistent with curvature.
Checked curvature refinement in = 0 s


Adding patches for surface regions
----------------------------------

Patch Type                Region                        
----- ----                ------                        
cylinder:

3     wall                cylinder                      

Added patches in = 0 s

Edge intersection testing:
    Number of edges             : 8525
    Number of edges to retest   : 0
    Number of intersected edges : 1162
Decomposition method scotch [4]

Refinement phase
----------------

Found point (0.05 0.05 1.5) in cell 137 on processor 0

Surface refinement iteration 0
------------------------------

Marked for refinement due to surface intersection          : 1164 cells.
Marked for refinement due to curvature/regions             : 0 cells.
Determined cells to refine in = 0 s
Selected for refinement : 1164 cells (out of 2500)
Edge intersection testing:
    Number of edges             : 36491
    Number of edges to retest   : 35135
    Number of intersected edges : 3452
Refined mesh in = 0.03 s
After refinement surface refinement iteration 0 : cells:10648  faces:36491  points:15318  unbalance:0.0236664
Cells per refinement level:
    0	1336
    1	9312
Skipping balancing since max unbalance 0.0236664 is less than allowable 0.1

Surface refinement iteration 1
------------------------------

Marked for refinement due to surface intersection          : 5360 cells.
Marked for refinement due to curvature/regions             : 0 cells.
Determined cells to refine in = 0 s
Selected for refinement : 6230 cells (out of 10648)
Edge intersection testing:
    Number of edges             : 176030
    Number of edges to retest   : 175844
    Number of intersected edges : 15360
Refined mesh in = 0.13 s
After refinement surface refinement iteration 1 : cells:54258  faces:176030  points:67745  unbalance:0.039478
Cells per refinement level:
    0	466
    1	10912
    2	42880
Skipping balancing since max unbalance 0.039478 is less than allowable 0.1

Surface refinement iteration 2
------------------------------

Marked for refinement due to surface intersection          : 23048 cells.
Marked for refinement due to curvature/regions             : 0 cells.
Determined cells to refine in = 0.01 s
Selected for refinement : 25344 cells (out of 54258)
Edge intersection testing:
    Number of edges             : 756686
    Number of edges to retest   : 727548
    Number of intersected edges : 61576
Refined mesh in = 0.54 s
After refinement surface refinement iteration 2 : cells:231666  faces:756686  points:293601  unbalance:0.0411541
Cells per refinement level:
    0	466
    1	8600
    2	38344
    3	184256
Skipping balancing since max unbalance 0.0411541 is less than allowable 0.1

Surface refinement iteration 3
------------------------------

Marked for refinement due to surface intersection          : 64 cells.
Marked for refinement due to curvature/regions             : 232 cells.
Determined cells to refine in = 0.13 s
Selected for refinement : 368 cells (out of 231666)
Edge intersection testing:
    Number of edges             : 765974
    Number of edges to retest   : 15984
    Number of intersected edges : 62392
Refined mesh in = 0.34 s
After refinement surface refinement iteration 3 : cells:234242  faces:765974  points:297929  unbalance:0.0297043
Cells per refinement level:
    0	466
    1	8568
    2	38496
    3	184856
    4	1856
Skipping balancing since max unbalance 0.0297043 is less than allowable 0.1

Surface refinement iteration 4
------------------------------

Marked for refinement due to surface intersection          : 32 cells.
Marked for refinement due to curvature/regions             : 320 cells.
Determined cells to refine in = 0.15 s
Selected for refinement : 512 cells (out of 234242)
Edge intersection testing:
    Number of edges             : 778766
    Number of edges to retest   : 22896
    Number of intersected edges : 63952
Refined mesh in = 0.41 s
After refinement surface refinement iteration 4 : cells:237826  faces:778766  points:303777  unbalance:0.0141868
Cells per refinement level:
    0	458
    1	8600
    2	38688
    3	185112
    4	3752
    5	1216
Skipping balancing since max unbalance 0.0141868 is less than allowable 0.1

Surface refinement iteration 5
------------------------------

Marked for refinement due to surface intersection          : 0 cells.
Marked for refinement due to curvature/regions             : 368 cells.
Determined cells to refine in = 0.15 s
Selected for refinement : 512 cells (out of 237826)
Edge intersection testing:
    Number of edges             : 791390
    Number of edges to retest   : 25256
    Number of intersected edges : 65456
Refined mesh in = 0.33 s
After refinement surface refinement iteration 5 : cells:241410  faces:791390  points:309473  unbalance:0.000869889
Cells per refinement level:
    0	442
    1	8696
    2	38912
    3	185208
    4	4760
    5	3392
Skipping balancing since max unbalance 0.000869889 is less than allowable 0.1

Surface refinement iteration 6
------------------------------

Marked for refinement due to surface intersection          : 0 cells.
Marked for refinement due to curvature/regions             : 32 cells.
Determined cells to refine in = 0.16 s
Selected for refinement : 80 cells (out of 241410)
Edge intersection testing:
    Number of edges             : 793334
    Number of edges to retest   : 6416
    Number of intersected edges : 65424
Refined mesh in = 0.32 s
After refinement surface refinement iteration 6 : cells:241970  faces:793334  points:310329  unbalance:0.00318221
Cells per refinement level:
    0	442
    1	8696
    2	38896
    3	185304
    4	4984
    5	3648
Skipping balancing since max unbalance 0.00318221 is less than allowable 0.1

Surface refinement iteration 7
------------------------------

Marked for refinement due to surface intersection          : 0 cells.
Marked for refinement due to curvature/regions             : 0 cells.
Determined cells to refine in = 0.14 s
Selected for refinement : 0 cells (out of 241970)
Stopping refining since too few cells selected.


Removing mesh beyond surface intersections
------------------------------------------

Setting cellZones according to locationsInMesh:
Location : (0.05 0.05 1.5)
    cellZone : none

For cellZone none found point (0.05 0.05 1.5) in global region 1 out of 2 regions.
--> FOAM Warning : 
    From void Foam::meshRefinement::nearestFace(const labelUList&, const Foam::bitSet&, Foam::autoPtr<Foam::mapDistribute>&, Foam::labelList&, Foam::label) const
    in file meshRefinement/meshRefinement.C at line 515
    Did not visit some faces, e.g. face 0 at (-0.6 -0.8 -0.79)
Keeping all cells containing inside points
Selected for keeping : 168816 cells.
Edge intersection testing:
    Number of edges             : 566752
    Number of edges to retest   : 71048
    Number of intersected edges : 65424

Shell refinement iteration 0
----------------------------

Marked for refinement due to distance to explicit features : 0 cells.
Marked for refinement due to refinement shells             : 184 cells.
Determined cells to refine in = 0.45 s
Selected for internal refinement : 11054 cells (out of 168816)
Edge intersection testing:
    Number of edges             : 796270
    Number of edges to retest   : 479542
    Number of intersected edges : 68200
Refined mesh in = 0.68 s
After refinement shell refinement iteration 0 : cells:246194  faces:796270  points:304807  unbalance:0.0641527
Cells per refinement level:
    0	0
    1	0
    2	12000
    3	208066
    4	7776
    5	18352
Skipping balancing since max unbalance 0.0641527 is less than allowable 0.1

Shell refinement iteration 1
----------------------------

Marked for refinement due to distance to explicit features : 0 cells.
Marked for refinement due to refinement shells             : 32 cells.
Determined cells to refine in = 0.07 s
Selected for internal refinement : 1306 cells (out of 246194)
Edge intersection testing:
    Number of edges             : 825280
    Number of edges to retest   : 80422
    Number of intersected edges : 69856
Refined mesh in = 0.41 s
After refinement shell refinement iteration 1 : cells:255336  faces:825280  points:315511  unbalance:0.0976596
Cells per refinement level:
    0	0
    1	0
    2	11968
    3	208128
    4	8248
    5	26992
Skipping balancing since max unbalance 0.0976596 is less than allowable 0.1

Shell refinement iteration 2
----------------------------

Marked for refinement due to distance to explicit features : 0 cells.
Marked for refinement due to refinement shells             : 0 cells.
Determined cells to refine in = 0.07 s
Selected for internal refinement : 160 cells (out of 255336)
Edge intersection testing:
    Number of edges             : 828928
    Number of edges to retest   : 12648
    Number of intersected edges : 69952
Refined mesh in = 0.34 s
After refinement shell refinement iteration 2 : cells:256456  faces:828928  points:316911  unbalance:0.1016
Cells per refinement level:
    0	0
    1	0
    2	11968
    3	208016
    4	9096
    5	27376
Balancing since max unbalance 0.1016 is larger than allowable 0.1
Balanced mesh in = 0.9 s
After balancing shell refinement iteration 2 : cells:256456  faces:828928  points:316911  unbalance:0.00402408
Cells per refinement level:
    0	0
    1	0
    2	11968
    3	208016
    4	9096
    5	27376

Shell refinement iteration 3
----------------------------

Marked for refinement due to distance to explicit features : 0 cells.
Marked for refinement due to refinement shells             : 0 cells.
Determined cells to refine in = 0.07 s
Selected for internal refinement : 0 cells (out of 256456)
Stopping refining since too few cells selected.


Dangling coarse cells refinement iteration 0
--------------------------------------------

Determined cells to refine in = 0 s
Selected for refinement : 0 cells (out of 256456)
Stopping refining since too few cells selected.


Dangling coarse cells refinement iteration 0
--------------------------------------------

Determined cells to refine in = 0 s
Selected for refinement : 0 cells (out of 256456)
Stopping refining since too few cells selected.


Refinement transition refinement iteration 0
--------------------------------------------

Determined cells to refine in = 0.01 s
Selected for refinement : 0 cells (out of 256456)
Stopping refining since too few cells selected.


Splitting mesh at surface intersections
---------------------------------------

Introducing baffles for 69952 faces that are intersected by the surface.

Setting cellZones according to locationsInMesh:
Location : (0.05 0.05 1.5)
    cellZone : none

For cellZone none found point (0.05 0.05 1.5) in global region 0 out of 2 regions.
Edge intersection testing:
    Number of edges             : 898880
    Number of edges to retest   : 448908
    Number of intersected edges : 139520
Created baffles in = 0.51 s


After introducing baffles : cells:256456  faces:898880  points:316911  unbalance:0.00402408
Cells per refinement level:
    0	0
    1	0
    2	11968
    3	208016
    4	9096
    5	27376

Introducing baffles to block off problem cells
----------------------------------------------

markFacesOnProblemCells : marked 130740 additional internal faces to be converted into baffles.
Analyzed problem cells in = 0.18 s


Introducing baffles to delete problem cells.

Edge intersection testing:
    Number of edges             : 1029620
    Number of edges to retest   : 400200
    Number of intersected edges : 139520
Created baffles in = 0.36 s


After introducing baffles : cells:256456  faces:1029620  points:317183  unbalance:0.00402408
Cells per refinement level:
    0	0
    1	0
    2	11968
    3	208016
    4	9096
    5	27376
Setting cellZones according to locationsInMesh:
Location : (0.05 0.05 1.5)
    cellZone : none

For cellZone none found point (0.05 0.05 1.5) in global region 0 out of 64355 regions.
Edge intersection testing:
    Number of edges             : 1029620
    Number of edges to retest   : 523024
    Number of intersected edges : 139520

Remove unreachable sections of mesh
-----------------------------------

Keeping all cells containing points 1((0.05 0.05 1.5))
Selected for keeping : 172512 cells.
Edge intersection testing:
    Number of edges             : 569996
    Number of edges to retest   : 0
    Number of intersected edges : 69776
Split mesh in = 0.94 s


After subsetting : cells:172512  faces:569996  points:225917  unbalance:0.0572714
Cells per refinement level:
    0	0
    1	0
    2	11968
    3	144232
    4	5048
    5	11264

Introducing zones for interfaces
--------------------------------

Setting cellZones according to locationsInMesh:
Location : (0.05 0.05 1.5)
    cellZone : none

For cellZone none found point (0.05 0.05 1.5) in global region 0 out of 1 regions.
Setting faceZones according to neighbouring cellZones:

Edge intersection testing:
    Number of edges             : 569996
    Number of edges to retest   : 0
    Number of intersected edges : 69776

Handling cells with snap problems
---------------------------------

Introducing baffles for 69776 faces that are intersected by the surface.

Setting cellZones according to locationsInMesh:
Location : (0.05 0.05 1.5)
    cellZone : none

For cellZone none found point (0.05 0.05 1.5) in global region 0 out of 1 regions.
Edge intersection testing:
    Number of edges             : 569996
    Number of edges to retest   : 215480
    Number of intersected edges : 69776
Created baffles in = 0.57 s


After introducing baffles : cells:172512  faces:569996  points:225917  unbalance:0.0572714
Cells per refinement level:
    0	0
    1	0
    2	11968
    3	144232
    4	5048
    5	11264

Introducing baffles to block off problem cells
----------------------------------------------

markFacesOnProblemCells : marked 0 additional internal faces to be converted into baffles.
Analyzed problem cells in = 0.11 s


Introducing baffles to delete problem cells.

Created baffles in = 0.02 s


After introducing baffles : cells:172512  faces:569996  points:225917  unbalance:0.0572714
Cells per refinement level:
    0	0
    1	0
    2	11968
    3	144232
    4	5048
    5	11264
Setting cellZones according to locationsInMesh:
Location : (0.05 0.05 1.5)
    cellZone : none

For cellZone none found point (0.05 0.05 1.5) in global region 0 out of 1 regions.
Edge intersection testing:
    Number of edges             : 569996
    Number of edges to retest   : 215480
    Number of intersected edges : 69776

Remove unreachable sections of mesh
-----------------------------------

Split mesh in = 0.34 s


After subsetting : cells:172512  faces:569996  points:225917  unbalance:0.0572714
Cells per refinement level:
    0	0
    1	0
    2	11968
    3	144232
    4	5048
    5	11264

Merge free-standing baffles
---------------------------

freeStandingBaffles : detected 0 free-standing baffles out of 0

Detected free-standing baffles : 0
Merged free-standing baffles in = 0.05 s


dupNonManifoldPoints : Found : 0 non-manifold points (out of 226790)
Detected unsplittable baffles : 0

Merge refined boundary faces
----------------------------

Merging 160 sets of faces.

Edge intersection testing:
    Number of edges             : 569804
    Number of edges to retest   : 1584
    Number of intersected edges : 69584

Undo iteration 0
----------------
Checking faces in error :
    non-orthogonality > 65  degrees                        : 0
    faces with face pyramid volume < 1e-13                 : 0
    faces with face-decomposition tet quality < 1e-30      : 0
    faces with concavity > 80  degrees                     : 0
    faces with skewness > 4   (internal) or 20  (boundary) : 0
    faces with interpolation weights (0..1)  < 0.02        : 0
    faces with volume ratio of neighbour cells < 0.01      : 0
    faces with face twist < 0.02                           : 0
    faces on cells with determinant < 0.001                : 0

Merging all points on surface that
- are used by only two boundary faces and
- make an angle with a cosine of more than 0.707107.

Removing 144 straight edge points ...

Edge intersection testing:
    Number of edges             : 569804
    Number of edges to retest   : 1328
    Number of intersected edges : 69584

Undo iteration 0
----------------
Checking faces in error :
    non-orthogonality > 65  degrees                        : 0
    faces with face pyramid volume < 1e-13                 : 0
    faces with face-decomposition tet quality < 1e-30      : 0
    faces with concavity > 80  degrees                     : 0
    faces with skewness > 4   (internal) or 20  (boundary) : 0
    faces with interpolation weights (0..1)  < 0.02        : 0
    faces with volume ratio of neighbour cells < 0.01      : 0
    faces with face twist < 0.02                           : 0
    faces on cells with determinant < 0.001                : 0

Doing final balancing
---------------------

Found 0 zoned faces to keep together.
Found 0 separated coupled faces to keep together.
Refined mesh : cells:172512  faces:569804  points:225757  unbalance:0.00292154
Cells per refinement level:
    0	0
    1	0
    2	11968
    3	144232
    4	5048
    5	11264
Writing mesh to time constant
Wrote mesh in = 0.19 s.
Mesh refined in = 10.43 s.

Morphing phase
--------------

Duplicating 0 points on faceZones of type boundary
Snapping to features in 10 iterations ...
Constructing mesh displacer ...
Using mesh parameters 
{
    maxNonOrtho     65;
    maxBoundarySkewness 20;
    maxInternalSkewness 4;
    maxConcave      80;
    minFlatness     0.5;
    minVol          1e-13;
    minTetQuality   1e-30;
    minArea         -1;
    minTwist        0.02;
    minDeterminant  0.001;
    minFaceWeight   0.02;
    minVolRatio     0.01;
    minTriangleTwist -1;
    nSmoothScale    4;
    errorReduction  0.75;
}


Checking initial mesh ...
Checking faces in error :
    non-orthogonality > 65  degrees                        : 0
    faces with face pyramid volume < 1e-13                 : 0
    faces with face-decomposition tet quality < 1e-30      : 0
    faces with concavity > 80  degrees                     : 0
    faces with skewness > 4   (internal) or 20  (boundary) : 0
    faces with interpolation weights (0..1)  < 0.02        : 0
    faces with volume ratio of neighbour cells < 0.01      : 0
    faces with face twist < 0.02                           : 0
    faces on cells with determinant < 0.001                : 0
Detected 0 illegal faces (concave, zero area or negative cell pyramid volume)
Checked initial mesh in = 1.72 s


Smoothing patch points ...
Smoothing iteration 0
Found 0 non-manifold point(s).

Scaling iteration 0
Moving mesh using displacement scaling : min:1  max:1
Checking faces in error :
    non-orthogonality > 65  degrees                        : 0
    faces with face pyramid volume < 1e-13                 : 0
    faces with face-decomposition tet quality < 1e-30      : 0
    faces with concavity > 80  degrees                     : 0
    faces with skewness > 4   (internal) or 20  (boundary) : 0
    faces with interpolation weights (0..1)  < 0.02        : 0
    faces with volume ratio of neighbour cells < 0.01      : 0
    faces with face twist < 0.02                           : 0
    faces on cells with determinant < 0.001                : 0
Successfully moved mesh

Smoothing iteration 1
Found 0 non-manifold point(s).

Scaling iteration 0
Moving mesh using displacement scaling : min:1  max:1
Checking faces in error :
    non-orthogonality > 65  degrees                        : 0
    faces with face pyramid volume < 1e-13                 : 0
    faces with face-decomposition tet quality < 1e-30      : 0
    faces with concavity > 80  degrees                     : 0
    faces with skewness > 4   (internal) or 20  (boundary) : 0
    faces with interpolation weights (0..1)  < 0.02        : 0
    faces with volume ratio of neighbour cells < 0.01      : 0
    faces with face twist < 0.02                           : 0
    faces on cells with determinant < 0.001                : 0
Successfully moved mesh

Smoothing iteration 2
Found 0 non-manifold point(s).

Scaling iteration 0
Moving mesh using displacement scaling : min:1  max:1
Checking faces in error :
    non-orthogonality > 65  degrees                        : 0
    faces with face pyramid volume < 1e-13                 : 0
    faces with face-decomposition tet quality < 1e-30      : 0
    faces with concavity > 80  degrees                     : 0
    faces with skewness > 4   (internal) or 20  (boundary) : 0
    faces with interpolation weights (0..1)  < 0.02        : 0
    faces with volume ratio of neighbour cells < 0.01      : 0
    faces with face twist < 0.02                           : 0
    faces on cells with determinant < 0.001                : 0
Successfully moved mesh

Patch points smoothed in = 0.66 s



Morph iteration 0
-----------------
Calculating patchDisplacement as distance to nearest surface point ...
    non-zone points : attract to nearest of all non-zone surfaces
    zone points     : attract to zone surface only

Wanted displacement : average:0.00684874 min:4.7395e-07 max:0.0156454
Calculated surface displacement in = 0.04 s


Detecting near surfaces ...
Overriding nearest with intersection of close gaps at 0 out of 70574 points.
Overriding displacement on features :
   implicit features    : true
   explicit features    : false
   multi-patch features : false

Attraction:
    linear   : max:(-0.0133397 -0.00817498 2.77556e-17) avg:(-1.06736e-07 -2.09786e-06 -1.39335e-07)
    feature  : max:(-0.0133397 -0.00817498 0) avg:(-5.24028e-06 -6.05663e-06 -1.47045e-07)
Feature analysis : total master points :70322 of which attracted to :
    feature point   : 0
    feature edge    : 640
    nearest surface : 69682
    rest            : 0

--> FOAM Warning : Displacement (-6.71383e-06 -2.29272e-05 6.17535e-07) at mesh point 52702 coord (0.378001 0.328069 39.845) points through the surrounding patch faces
Smoothing displacement ...
Iteration 0
Iteration 10
Iteration 20
Displacement smoothed in = 0.39 s


Moving mesh ...

Iteration 0
Moving mesh using displacement scaling : min:1  max:1
Checking faces in error :
    non-orthogonality > 65  degrees                        : 0
    faces with face pyramid volume < 1e-13                 : 0
    faces with face-decomposition tet quality < 1e-30      : 0
    faces with concavity > 80  degrees                     : 0
    faces with skewness > 4   (internal) or 20  (boundary) : 0
    faces with interpolation weights (0..1)  < 0.02        : 0
    faces with volume ratio of neighbour cells < 0.01      : 0
    faces with face twist < 0.02                           : 0
    faces on cells with determinant < 0.001                : 0
Successfully moved mesh
Moved mesh in = 0.2 s



Morph iteration 1
-----------------
Calculating patchDisplacement as distance to nearest surface point ...
    non-zone points : attract to nearest of all non-zone surfaces
    zone points     : attract to zone surface only

Wanted displacement : average:0.00634954 min:4.93074e-07 max:0.0150362
Calculated surface displacement in = 0.04 s


Detecting near surfaces ...
Overriding nearest with intersection of close gaps at 0 out of 70574 points.
Overriding displacement on features :
   implicit features    : true
   explicit features    : false
   multi-patch features : false

Attraction:
    linear   : max:(-0.0128203 -0.00785668 3.76588e-13) avg:(-8.79548e-09 -1.7986e-06 -1.25497e-07)
    feature  : max:(-0.0128203 -0.00785668 0) avg:(-6.77812e-06 -1.03571e-05 -1.34071e-07)
Feature analysis : total master points :70322 of which attracted to :
    feature point   : 0
    feature edge    : 672
    nearest surface : 69650
    rest            : 0

--> FOAM Warning : Displacement (-3.17623e-05 -5.64962e-05 2.35718e-06) at mesh point 52702 coord (0.377994 0.328046 39.845) points through the surrounding patch faces
Smoothing displacement ...
Iteration 0
Iteration 10
Iteration 20
Displacement smoothed in = 0.36 s


Moving mesh ...

Iteration 0
Moving mesh using displacement scaling : min:1  max:1
Checking faces in error :
    non-orthogonality > 65  degrees                        : 0
    faces with face pyramid volume < 1e-13                 : 0
    faces with face-decomposition tet quality < 1e-30      : 0
    faces with concavity > 80  degrees                     : 0
    faces with skewness > 4   (internal) or 20  (boundary) : 0
    faces with interpolation weights (0..1)  < 0.02        : 0
    faces with volume ratio of neighbour cells < 0.01      : 0
    faces with face twist < 0.02                           : 0
    faces on cells with determinant < 0.001                : 0
Successfully moved mesh
Moved mesh in = 0.18 s



Morph iteration 2
-----------------
Calculating patchDisplacement as distance to nearest surface point ...
    non-zone points : attract to nearest of all non-zone surfaces
    zone points     : attract to zone surface only

Wanted displacement : average:0.0055103 min:2.53055e-06 max:0.013702
Calculated surface displacement in = 0.04 s


Detecting near surfaces ...
Overriding nearest with intersection of close gaps at 0 out of 70574 points.
Overriding displacement on features :
   implicit features    : true
   explicit features    : false
   multi-patch features : false

Attraction:
    linear   : max:(-0.0116827 -0.00715953 2.98428e-13) avg:(9.29959e-08 -1.36995e-06 -1.00309e-07)
    feature  : max:(-0.0116827 -0.00715953 0) avg:(-6.52574e-06 -8.31749e-06 -1.0765e-07)
Feature analysis : total master points :70322 of which attracted to :
    feature point   : 0
    feature edge    : 640
    nearest surface : 69682
    rest            : 0

--> FOAM Warning : Displacement (-3.42644e-05 -2.37909e-05 1.40732e-05) at mesh point 52691 coord (0.395145 0.308628 39.9368) points through the surrounding patch faces
Smoothing displacement ...
Iteration 0
Iteration 10
Iteration 20
Displacement smoothed in = 0.34 s


Moving mesh ...

Iteration 0
Moving mesh using displacement scaling : min:1  max:1
Checking faces in error :
    non-orthogonality > 65  degrees                        : 0
    faces with face pyramid volume < 1e-13                 : 0
    faces with face-decomposition tet quality < 1e-30      : 0
    faces with concavity > 80  degrees                     : 0
    faces with skewness > 4   (internal) or 20  (boundary) : 0
    faces with interpolation weights (0..1)  < 0.02        : 0
    faces with volume ratio of neighbour cells < 0.01      : 0
    faces with face twist < 0.02                           : 0
    faces on cells with determinant < 0.001                : 0
Successfully moved mesh
Moved mesh in = 0.2 s



Morph iteration 3
-----------------
Calculating patchDisplacement as distance to nearest surface point ...
    non-zone points : attract to nearest of all non-zone surfaces
    zone points     : attract to zone surface only

Wanted displacement : average:0.00450611 min:5.15998e-06 max:0.0116752
Calculated surface displacement in = 0.03 s


Detecting near surfaces ...
Overriding nearest with intersection of close gaps at 0 out of 70574 points.
Overriding displacement on features :
   implicit features    : true
   explicit features    : false
   multi-patch features : false

Attraction:
    linear   : max:(-0.00995458 -0.00610048 3.76588e-13) avg:(2.33439e-07 -8.2144e-07 -7.08359e-08)
    feature  : max:(-0.00995458 -0.00610048 0) avg:(-5.1788e-06 -6.5193e-06 -7.75258e-08)
Feature analysis : total master points :70322 of which attracted to :
    feature point   : 0
    feature edge    : 640
    nearest surface : 69682
    rest            : 0

--> FOAM Warning : Displacement (-0.000346112 -0.000316397 6.66328e-12) at mesh point 1652 coord (0.380684 0.331497 31.4975) points through the surrounding patch faces
Smoothing displacement ...
Iteration 0
Iteration 10
Iteration 20
Displacement smoothed in = 0.34 s


Moving mesh ...

Iteration 0
Moving mesh using displacement scaling : min:1  max:1
Checking faces in error :
    non-orthogonality > 65  degrees                        : 0
    faces with face pyramid volume < 1e-13                 : 0
    faces with face-decomposition tet quality < 1e-30      : 0
    faces with concavity > 80  degrees                     : 0
    faces with skewness > 4   (internal) or 20  (boundary) : 0
    faces with interpolation weights (0..1)  < 0.02        : 0
    faces with volume ratio of neighbour cells < 0.01      : 0
    faces with face twist < 0.02                           : 0
    faces on cells with determinant < 0.001                : 0
Successfully moved mesh
Moved mesh in = 0.2 s



Morph iteration 4
-----------------
Calculating patchDisplacement as distance to nearest surface point ...
    non-zone points : attract to nearest of all non-zone surfaces
    zone points     : attract to zone surface only

Wanted displacement : average:0.00342132 min:4.04309e-07 max:0.00913598
Calculated surface displacement in = 0.04 s


Detecting near surfaces ...
Overriding nearest with intersection of close gaps at 0 out of 70574 points.
Overriding displacement on features :
   implicit features    : true
   explicit features    : false
   multi-patch features : false

Attraction:
    linear   : max:(-0.0077896 -0.00477371 -2.34479e-13) avg:(3.33151e-07 -3.24273e-07 -4.41637e-08)
    feature  : max:(-0.0077896 -0.00477371 0) avg:(-3.86964e-06 -4.50659e-06 -4.97874e-08)
Feature analysis : total master points :70322 of which attracted to :
    feature point   : 0
    feature edge    : 640
    nearest surface : 69682
    rest            : 0

--> FOAM Warning : Displacement (8.74721e-05 -3.02863e-05 2.616e-11) at mesh point 58 coord (-0.4924 -0.0960174 31.025) points through the surrounding patch faces
Smoothing displacement ...
Iteration 0
Iteration 10
Iteration 20
Displacement smoothed in = 0.37 s


Moving mesh ...

Iteration 0
Moving mesh using displacement scaling : min:1  max:1
Checking faces in error :
    non-orthogonality > 65  degrees                        : 0
    faces with face pyramid volume < 1e-13                 : 0
    faces with face-decomposition tet quality < 1e-30      : 0
    faces with concavity > 80  degrees                     : 0
    faces with skewness > 4   (internal) or 20  (boundary) : 0
    faces with interpolation weights (0..1)  < 0.02        : 0
    faces with volume ratio of neighbour cells < 0.01      : 0
    faces with face twist < 0.02                           : 0
    faces on cells with determinant < 0.001                : 0
Successfully moved mesh
Moved mesh in = 0.19 s



Morph iteration 5
-----------------
Calculating patchDisplacement as distance to nearest surface point ...
    non-zone points : attract to nearest of all non-zone surfaces
    zone points     : attract to zone surface only

Wanted displacement : average:0.00231042 min:2.04959e-07 max:0.00639293
Calculated surface displacement in = 0.03 s


Detecting near surfaces ...
Overriding nearest with intersection of close gaps at 0 out of 70574 points.
Overriding displacement on features :
   implicit features    : true
   explicit features    : false
   multi-patch features : false

Attraction:
    linear   : max:(-0.00545079 -0.00334042 3.48166e-13) avg:(3.51545e-07 -9.67495e-09 -2.51102e-08)
    feature  : max:(-0.00545079 -0.00334042 0) avg:(-2.56946e-06 -2.69416e-06 -2.93329e-08)
Feature analysis : total master points :70322 of which attracted to :
    feature point   : 0
    feature edge    : 640
    nearest surface : 69682
    rest            : 0

--> FOAM Warning : Displacement (8.75399e-05 0.000274449 3.90529e-11) at mesh point 891 coord (-0.132581 -0.483633 31.025) points through the surrounding patch faces
Smoothing displacement ...
Iteration 0
Iteration 10
Iteration 20
Displacement smoothed in = 0.35 s


Moving mesh ...

Iteration 0
Moving mesh using displacement scaling : min:1  max:1
Checking faces in error :
    non-orthogonality > 65  degrees                        : 0
    faces with face pyramid volume < 1e-13                 : 0
    faces with face-decomposition tet quality < 1e-30      : 0
    faces with concavity > 80  degrees                     : 0
    faces with skewness > 4   (internal) or 20  (boundary) : 0
    faces with interpolation weights (0..1)  < 0.02        : 0
    faces with volume ratio of neighbour cells < 0.01      : 0
    faces with face twist < 0.02                           : 0
    faces on cells with determinant < 0.001                : 0
Successfully moved mesh
Moved mesh in = 0.19 s



Morph iteration 6
-----------------
Calculating patchDisplacement as distance to nearest surface point ...
    non-zone points : attract to nearest of all non-zone surfaces
    zone points     : attract to zone surface only

Wanted displacement : average:0.00133556 min:2.72169e-08 max:0.00383778
Calculated surface displacement in = 0.03 s


Detecting near surfaces ...
Overriding nearest with intersection of close gaps at 0 out of 70574 points.
Overriding displacement on features :
   implicit features    : true
   explicit features    : false
   multi-patch features : false

Attraction:
    linear   : max:(-0.0032722 -0.00200531 2.41585e-13) avg:(2.74809e-07 1.00243e-07 -1.38379e-08)
    feature  : max:(-0.00374579 0.00110946 0) avg:(-1.44015e-06 -1.36503e-06 -1.65435e-08)
Feature analysis : total master points :70322 of which attracted to :
    feature point   : 0
    feature edge    : 640
    nearest surface : 69682
    rest            : 0

--> FOAM Warning : Displacement (0.000150908 0.000496188 -2.26699e-11) at mesh point 891 coord (-0.132494 -0.483359 31.025) points through the surrounding patch faces
Smoothing displacement ...
Iteration 0
Iteration 10
Iteration 20
Displacement smoothed in = 0.39 s


Moving mesh ...

Iteration 0
Moving mesh using displacement scaling : min:1  max:1
Checking faces in error :
    non-orthogonality > 65  degrees                        : 0
    faces with face pyramid volume < 1e-13                 : 0
    faces with face-decomposition tet quality < 1e-30      : 0
    faces with concavity > 80  degrees                     : 0
    faces with skewness > 4   (internal) or 20  (boundary) : 0
    faces with interpolation weights (0..1)  < 0.02        : 0
    faces with volume ratio of neighbour cells < 0.01      : 0
    faces with face twist < 0.02                           : 0
    faces on cells with determinant < 0.001                : 0
Successfully moved mesh
Moved mesh in = 0.21 s



Morph iteration 7
-----------------
Calculating patchDisplacement as distance to nearest surface point ...
    non-zone points : attract to nearest of all non-zone surfaces
    zone points     : attract to zone surface only

Wanted displacement : average:0.000624386 min:5.24138e-08 max:0.0018481
Calculated surface displacement in = 0.04 s


Detecting near surfaces ...
Overriding nearest with intersection of close gaps at 0 out of 70574 points.
Overriding displacement on features :
   implicit features    : true
   explicit features    : false
   multi-patch features : false

Attraction:
    linear   : max:(-0.00157575 -0.000965667 2.77112e-13) avg:(1.39548e-07 5.67051e-08 -7.27214e-09)
    feature  : max:(-0.00208834 0.000618542 0) avg:(-6.35254e-07 -5.3623e-07 -8.65956e-09)
Feature analysis : total master points :70322 of which attracted to :
    feature point   : 0
    feature edge    : 640
    nearest surface : 69682
    rest            : 0

--> FOAM Warning : Displacement (0.000123914 0.000427849 -1.14902e-11) at mesh point 891 coord (-0.132343 -0.482863 31.025) points through the surrounding patch faces
Smoothing displacement ...
Iteration 0
Iteration 10
Iteration 20
Displacement smoothed in = 0.37 s


Moving mesh ...

Iteration 0
Moving mesh using displacement scaling : min:1  max:1
Checking faces in error :
    non-orthogonality > 65  degrees                        : 0
    faces with face pyramid volume < 1e-13                 : 0
    faces with face-decomposition tet quality < 1e-30      : 0
    faces with concavity > 80  degrees                     : 0
    faces with skewness > 4   (internal) or 20  (boundary) : 0
    faces with interpolation weights (0..1)  < 0.02        : 0
    faces with volume ratio of neighbour cells < 0.01      : 0
    faces with face twist < 0.02                           : 0
    faces on cells with determinant < 0.001                : 0
Successfully moved mesh
Moved mesh in = 0.18 s



Morph iteration 8
-----------------
Calculating patchDisplacement as distance to nearest surface point ...
    non-zone points : attract to nearest of all non-zone surfaces
    zone points     : attract to zone surface only

Wanted displacement : average:0.000211639 min:4.78421e-08 max:0.000693082
Calculated surface displacement in = 0.03 s


Detecting near surfaces ...
Overriding nearest with intersection of close gaps at 0 out of 70574 points.
Overriding displacement on features :
   implicit features    : true
   explicit features    : false
   multi-patch features : false

Attraction:
    linear   : max:(0.000330952 0.00060896 0) avg:(3.84323e-08 -9.72593e-09 -1.12791e-08)
    feature  : max:(0.00130412 3.41193e-05 -0) avg:(-1.89345e-07 -5.30635e-08 -1.17729e-08)
Feature analysis : total master points :70322 of which attracted to :
    feature point   : 0
    feature edge    : 640
    nearest surface : 69682
    rest            : 0

--> FOAM Warning : Displacement (6.13046e-05 0.000218067 -7.13822e-13) at mesh point 891 coord (-0.132219 -0.482435 31.025) points through the surrounding patch faces
Smoothing displacement ...
Iteration 0
Iteration 10
Iteration 20
Displacement smoothed in = 0.35 s


Moving mesh ...

Iteration 0
Moving mesh using displacement scaling : min:1  max:1
Checking faces in error :
    non-orthogonality > 65  degrees                        : 0
    faces with face pyramid volume < 1e-13                 : 0
    faces with face-decomposition tet quality < 1e-30      : 0
    faces with concavity > 80  degrees                     : 0
    faces with skewness > 4   (internal) or 20  (boundary) : 0
    faces with interpolation weights (0..1)  < 0.02        : 0
    faces with volume ratio of neighbour cells < 0.01      : 0
    faces with face twist < 0.02                           : 0
    faces on cells with determinant < 0.001                : 0
Successfully moved mesh
Moved mesh in = 0.19 s



Morph iteration 9
-----------------
Calculating patchDisplacement as distance to nearest surface point ...
    non-zone points : attract to nearest of all non-zone surfaces
    zone points     : attract to zone surface only

Wanted displacement : average:4.03257e-05 min:2.09886e-08 max:0.000313891
Calculated surface displacement in = 0.03 s


Detecting near surfaces ...
Overriding nearest with intersection of close gaps at 0 out of 70574 points.
Overriding displacement on features :
   implicit features    : true
   explicit features    : false
   multi-patch features : false

Attraction:
    linear   : max:(0.000149886 0.000275793 0) avg:(2.06731e-08 -2.31894e-09 -1.08127e-08)
    feature  : max:(0.00126298 3.30429e-05 -0) avg:(-2.77644e-09 1.45429e-07 -1.11935e-08)
Feature analysis : total master points :70322 of which attracted to :
    feature point   : 0
    feature edge    : 640
    nearest surface : 69682
    rest            : 0

--> FOAM Warning : Displacement (2.39174e-06 -1.29868e-06 -1.90322e-10) at mesh point 1577 coord (-0.440206 0.236759 31.13) points through the surrounding patch faces
Smoothing displacement ...
Iteration 0
Iteration 10
Iteration 20
Displacement smoothed in = 0.28 s


Moving mesh ...

Iteration 0
Moving mesh using displacement scaling : min:1  max:1
Checking faces in error :
    non-orthogonality > 65  degrees                        : 0
    faces with face pyramid volume < 1e-13                 : 0
    faces with face-decomposition tet quality < 1e-30      : 0
    faces with concavity > 80  degrees                     : 0
    faces with skewness > 4   (internal) or 20  (boundary) : 0
    faces with interpolation weights (0..1)  < 0.02        : 0
    faces with volume ratio of neighbour cells < 0.01      : 0
    faces with face twist < 0.02                           : 0
    faces on cells with determinant < 0.001                : 0
Successfully moved mesh
Moved mesh in = 0.18 s


Repatching faces according to nearest surface ...
Repatched 0 faces in = 0.08 s


Edge intersection testing:
    Number of edges             : 569804
    Number of edges to retest   : 219131
    Number of intersected edges : 69760
Merging 20000 sets of faces.

Edge intersection testing:
    Number of edges             : 549628
    Number of edges to retest   : 80552
    Number of intersected edges : 49584

Undo iteration 0
----------------
Checking faces in error :
    non-orthogonality > 65  degrees                        : 0
    faces with face pyramid volume < 1e-13                 : 0
    faces with face-decomposition tet quality < 1e-30      : 0
    faces with concavity > 80  degrees                     : 0
    faces with skewness > 4   (internal) or 20  (boundary) : 0
    faces with interpolation weights (0..1)  < 0.02        : 0
    faces with volume ratio of neighbour cells < 0.01      : 0
    faces with face twist < 0.02                           : 0
    faces on cells with determinant < 0.001                : 0

Merging all points on surface that
- are used by only two boundary faces and
- make an angle with a cosine of more than 0.5.

Removing 20112 straight edge points ...

Edge intersection testing:
    Number of edges             : 549628
    Number of edges to retest   : 80552
    Number of intersected edges : 49584

Undo iteration 0
----------------
Checking faces in error :
    non-orthogonality > 65  degrees                        : 0
    faces with face pyramid volume < 1e-13                 : 0
    faces with face-decomposition tet quality < 1e-30      : 0
    faces with concavity > 80  degrees                     : 0
    faces with skewness > 4   (internal) or 20  (boundary) : 0
    faces with interpolation weights (0..1)  < 0.02        : 0
    faces with volume ratio of neighbour cells < 0.01      : 0
    faces with face twist < 0.02                           : 0
    faces on cells with determinant < 0.001                : 0
Snapped mesh : cells:172512  faces:549628  points:205541  unbalance:0.00292154
Cells per refinement level:
    0	0
    1	0
    2	11968
    3	144232
    4	5048
    5	11264
Writing mesh to time constant
Wrote mesh in = 0.17 s.
Mesh snapped in = 8.05 s.
Checking final mesh ...
Checking faces in error :
    non-orthogonality > 65  degrees                        : 0
    faces with face pyramid volume < 1e-13                 : 0
    faces with face-decomposition tet quality < 1e-30      : 0
    faces with concavity > 80  degrees                     : 0
    faces with skewness > 4   (internal) or 20  (boundary) : 0
    faces with interpolation weights (0..1)  < 0.02        : 0
    faces with volume ratio of neighbour cells < 0.01      : 0
    faces with face twist < 0.02                           : 0
    faces on cells with determinant < 0.001                : 0
Finished meshing without any errors
Finished meshing in = 18.64 s.
End

Finalising parallel run
