/*---------------------------------------------------------------------------*\
| =========                 |                                                 |
| \\      /  F ield         | OpenFOAM: The Open Source CFD Toolbox           |
|  \\    /   O peration     | Version:                                        |
|   \\  /    A nd           | Website:  www.openfoam.com                      |
|    \\/     M anipulation  |                                                 |
\*---------------------------------------------------------------------------*/
Build  : OPENFOAM=1912 patch=200626
Arch   : "LSB;label=32;scalar=64"
Exec   : snappyHexMesh -overwrite
Date   : Apr 08 2024
Time   : 14:32:44
Host   : YanD
PID    : 12901
I/O    : uncollated
Case   : /home/yand/OpenFOAM/yand-v2312/run/RAS_pipe
nProcs : 1
trapFpe: Floating point exception trapping enabled (FOAM_SIGFPE).
fileModificationChecking : Monitoring run-time modified files using timeStampMaster (fileModificationSkew 5, maxFileModificationPolls 20)
allowSystemOperations : Allowing user-supplied system call operations

// * * * * * * * * * * * * * * * * * * * * * * * * * * * * * * * * * * * * * //
Create time

Create mesh for time = 0

Read mesh in = 0.01 s

Overall mesh bounding box  : (-1 -1 -1) (1 1 41)
Relative tolerance         : 1e-06
Absolute matching distance : 4.20951e-05

Reading refinement surfaces.
Read refinement surfaces in = 0 s

Reading refinement shells.
Refinement level 3 for all cells inside bottomPatchBox
Refinement level 3 for all cells inside topPatchBox
Read refinement shells in = 0 s

Setting refinement level of surface to be consistent with shells.
For geometry cylinder.stl detected 0 uncached triangles out of 476
Checked shell refinement in = 0.02 s

Reading features.
Read features in = 0 s


Determining initial surface intersections
-----------------------------------------

Edge intersection testing:
    Number of edges             : 8525
    Number of edges to retest   : 0
    Number of intersected edges : 0
Edge intersection testing:
    Number of edges             : 8525
    Number of edges to retest   : 8525
    Number of intersected edges : 1162
Calculated surface intersections in = 0.01 s

Initial mesh : cells:2500  faces:8525  points:3636
Cells per refinement level:
    0	2500

Adding patches for surface regions
----------------------------------

Patch Type                Region                        
----- ----                ------                        
cylinder:

3     wall                cylinder                      

Added patches in = 0 s

Edge intersection testing:
    Number of edges             : 8525
    Number of edges to retest   : 0
    Number of intersected edges : 1162
Selecting decompositionMethod none [1]

Refinement phase
----------------

Found point (0.05 0.05 1.5) in cell 137 on processor 0

Surface refinement iteration 0
------------------------------

Marked for refinement due to surface intersection          : 1164 cells.
Marked for refinement due to curvature/regions             : 0 cells.
Determined cells to refine in = 0 s
Selected for refinement : 1164 cells (out of 2500)
Edge intersection testing:
    Number of edges             : 36491
    Number of edges to retest   : 35135
    Number of intersected edges : 3452
Refined mesh in = 0.05 s
After refinement surface refinement iteration 0 : cells:10648  faces:36491  points:15318
Cells per refinement level:
    0	1336
    1	9312

Surface refinement iteration 1
------------------------------

Marked for refinement due to surface intersection          : 5360 cells.
Marked for refinement due to curvature/regions             : 0 cells.
Determined cells to refine in = 0 s
Selected for refinement : 6230 cells (out of 10648)
Edge intersection testing:
    Number of edges             : 176030
    Number of edges to retest   : 175844
    Number of intersected edges : 15360
Refined mesh in = 0.21 s
After refinement surface refinement iteration 1 : cells:54258  faces:176030  points:67745
Cells per refinement level:
    0	466
    1	10912
    2	42880

Surface refinement iteration 2
------------------------------

Marked for refinement due to surface intersection          : 23048 cells.
Marked for refinement due to curvature/regions             : 0 cells.
Determined cells to refine in = 0.02 s
Selected for refinement : 25344 cells (out of 54258)
Edge intersection testing:
    Number of edges             : 756686
    Number of edges to retest   : 727548
    Number of intersected edges : 61576
Refined mesh in = 0.97 s
After refinement surface refinement iteration 2 : cells:231666  faces:756686  points:293601
Cells per refinement level:
    0	466
    1	8600
    2	38344
    3	184256

Surface refinement iteration 3
------------------------------

Marked for refinement due to surface intersection          : 64 cells.
Marked for refinement due to curvature/regions             : 232 cells.
Determined cells to refine in = 0.14 s
Selected for refinement : 368 cells (out of 231666)
Edge intersection testing:
    Number of edges             : 765974
    Number of edges to retest   : 15984
    Number of intersected edges : 62392
Refined mesh in = 0.42 s
After refinement surface refinement iteration 3 : cells:234242  faces:765974  points:297929
Cells per refinement level:
    0	466
    1	8568
    2	38496
    3	184856
    4	1856

Surface refinement iteration 4
------------------------------

Marked for refinement due to surface intersection          : 32 cells.
Marked for refinement due to curvature/regions             : 320 cells.
Determined cells to refine in = 0.14 s
Selected for refinement : 512 cells (out of 234242)
Edge intersection testing:
    Number of edges             : 778766
    Number of edges to retest   : 22896
    Number of intersected edges : 63952
Refined mesh in = 0.4 s
After refinement surface refinement iteration 4 : cells:237826  faces:778766  points:303777
Cells per refinement level:
    0	458
    1	8600
    2	38688
    3	185112
    4	3752
    5	1216

Surface refinement iteration 5
------------------------------

Marked for refinement due to surface intersection          : 0 cells.
Marked for refinement due to curvature/regions             : 368 cells.
Determined cells to refine in = 0.15 s
Selected for refinement : 512 cells (out of 237826)
Edge intersection testing:
    Number of edges             : 791390
    Number of edges to retest   : 25256
    Number of intersected edges : 65456
Refined mesh in = 0.39 s
After refinement surface refinement iteration 5 : cells:241410  faces:791390  points:309473
Cells per refinement level:
    0	442
    1	8696
    2	38912
    3	185208
    4	4760
    5	3392

Surface refinement iteration 6
------------------------------

Marked for refinement due to surface intersection          : 0 cells.
Marked for refinement due to curvature/regions             : 32 cells.
Determined cells to refine in = 0.15 s
Selected for refinement : 80 cells (out of 241410)
Edge intersection testing:
    Number of edges             : 793334
    Number of edges to retest   : 6416
    Number of intersected edges : 65424
Refined mesh in = 0.39 s
After refinement surface refinement iteration 6 : cells:241970  faces:793334  points:310329
Cells per refinement level:
    0	442
    1	8696
    2	38896
    3	185304
    4	4984
    5	3648

Surface refinement iteration 7
------------------------------

Marked for refinement due to surface intersection          : 0 cells.
Marked for refinement due to curvature/regions             : 0 cells.
Determined cells to refine in = 0.15 s
Selected for refinement : 0 cells (out of 241970)
Stopping refining since too few cells selected.


Removing mesh beyond surface intersections
------------------------------------------

Setting cellZones according to locationsInMesh:
Location : (0.05 0.05 1.5)
    cellZone : none

For cellZone none found point (0.05 0.05 1.5) in global region 1 out of 2 regions.
Keeping all cells containing inside points
Selected for keeping : 241970 cells.
Edge intersection testing:
    Number of edges             : 793334
    Number of edges to retest   : 0
    Number of intersected edges : 65424
Setting cellZones according to locationsInMesh:
Location : (0.05 0.05 1.5)
    cellZone : none

For cellZone none found point (0.05 0.05 1.5) in global region 1 out of 2 regions.
Keeping all cells containing inside points
Selected for keeping : 173962 cells.
Edge intersection testing:
    Number of edges             : 594118
    Number of edges to retest   : 82144
    Number of intersected edges : 65424

Shell refinement iteration 0
----------------------------

Marked for refinement due to distance to explicit features : 0 cells.
Marked for refinement due to refinement shells             : 490 cells.
Determined cells to refine in = 1.03 s
Selected for internal refinement : 11368 cells (out of 173962)
Edge intersection testing:
    Number of edges             : 831058
    Number of edges to retest   : 489054
    Number of intersected edges : 68200
Refined mesh in = 0.83 s
After refinement shell refinement iteration 0 : cells:253538  faces:831058  points:326517
Cells per refinement level:
    0	368
    1	5056
    2	13920
    3	208066
    4	7776
    5	18352

Shell refinement iteration 1
----------------------------

Marked for refinement due to distance to explicit features : 0 cells.
Marked for refinement due to refinement shells             : 2320 cells.
Determined cells to refine in = 0.12 s
Selected for internal refinement : 3650 cells (out of 253538)
Edge intersection testing:
    Number of edges             : 913948
    Number of edges to retest   : 144198
    Number of intersected edges : 69856
Refined mesh in = 0.54 s
After refinement shell refinement iteration 1 : cells:279088  faces:913948  points:358393
Cells per refinement level:
    0	360
    1	4512
    2	17024
    3	221952
    4	8248
    5	26992

Shell refinement iteration 2
----------------------------

Marked for refinement due to distance to explicit features : 0 cells.
Marked for refinement due to refinement shells             : 4352 cells.
Determined cells to refine in = 0.12 s
Selected for internal refinement : 4544 cells (out of 279088)
Edge intersection testing:
    Number of edges             : 1013356
    Number of edges to retest   : 131608
    Number of intersected edges : 69952
Refined mesh in = 0.62 s
After refinement shell refinement iteration 2 : cells:310896  faces:1013356  points:394065
Cells per refinement level:
    0	360
    1	4480
    2	12928
    3	256656
    4	9096
    5	27376

Shell refinement iteration 3
----------------------------

Marked for refinement due to distance to explicit features : 0 cells.
Marked for refinement due to refinement shells             : 0 cells.
Determined cells to refine in = 0.11 s
Selected for internal refinement : 0 cells (out of 310896)
Stopping refining since too few cells selected.


Dangling coarse cells refinement iteration 0
--------------------------------------------

Determined cells to refine in = 0.01 s
Selected for refinement : 0 cells (out of 310896)
Stopping refining since too few cells selected.


Dangling coarse cells refinement iteration 0
--------------------------------------------

Determined cells to refine in = 0 s
Selected for refinement : 0 cells (out of 310896)
Stopping refining since too few cells selected.


Refinement transition refinement iteration 0
--------------------------------------------

Determined cells to refine in = 0.01 s
Selected for refinement : 0 cells (out of 310896)
Stopping refining since too few cells selected.


Splitting mesh at surface intersections
---------------------------------------

Introducing baffles for 69952 faces that are intersected by the surface.

Setting cellZones according to locationsInMesh:
Location : (0.05 0.05 1.5)
    cellZone : none

For cellZone none found point (0.05 0.05 1.5) in global region 1 out of 3 regions.
Edge intersection testing:
    Number of edges             : 1083308
    Number of edges to retest   : 448908
    Number of intersected edges : 139520
Created baffles in = 0.81 s


After introducing baffles : cells:310896  faces:1083308  points:394065
Cells per refinement level:
    0	360
    1	4480
    2	12928
    3	256656
    4	9096
    5	27376

Introducing baffles to block off problem cells
----------------------------------------------

markFacesOnProblemCells : marked 130740 additional internal faces to be converted into baffles.
Analyzed problem cells in = 0.4 s


Introducing baffles to delete problem cells.

Edge intersection testing:
    Number of edges             : 1214048
    Number of edges to retest   : 400200
    Number of intersected edges : 139520
Created baffles in = 0.63 s


After introducing baffles : cells:310896  faces:1214048  points:394065
Cells per refinement level:
    0	360
    1	4480
    2	12928
    3	256656
    4	9096
    5	27376
Setting cellZones according to locationsInMesh:
Location : (0.05 0.05 1.5)
    cellZone : none

For cellZone none found point (0.05 0.05 1.5) in global region 1 out of 64356 regions.
Edge intersection testing:
    Number of edges             : 1214048
    Number of edges to retest   : 523024
    Number of intersected edges : 139520

Remove unreachable sections of mesh
-----------------------------------

Keeping all cells containing points 1((0.05 0.05 1.5))
Selected for keeping : 172512 cells.
Edge intersection testing:
    Number of edges             : 569996
    Number of edges to retest   : 0
    Number of intersected edges : 69776
Split mesh in = 1.39 s


After subsetting : cells:172512  faces:569996  points:225917
Cells per refinement level:
    0	0
    1	0
    2	11968
    3	144232
    4	5048
    5	11264

Introducing zones for interfaces
--------------------------------

Setting cellZones according to locationsInMesh:
Location : (0.05 0.05 1.5)
    cellZone : none

For cellZone none found point (0.05 0.05 1.5) in global region 0 out of 1 regions.
Setting faceZones according to neighbouring cellZones:

Edge intersection testing:
    Number of edges             : 569996
    Number of edges to retest   : 0
    Number of intersected edges : 69776

Handling cells with snap problems
---------------------------------

Introducing baffles for 69776 faces that are intersected by the surface.

Setting cellZones according to locationsInMesh:
Location : (0.05 0.05 1.5)
    cellZone : none

For cellZone none found point (0.05 0.05 1.5) in global region 0 out of 1 regions.
Edge intersection testing:
    Number of edges             : 569996
    Number of edges to retest   : 215480
    Number of intersected edges : 69776
Created baffles in = 0.76 s


After introducing baffles : cells:172512  faces:569996  points:225917
Cells per refinement level:
    0	0
    1	0
    2	11968
    3	144232
    4	5048
    5	11264

Introducing baffles to block off problem cells
----------------------------------------------

markFacesOnProblemCells : marked 0 additional internal faces to be converted into baffles.
Analyzed problem cells in = 0.21 s


Introducing baffles to delete problem cells.

Created baffles in = 0.02 s


After introducing baffles : cells:172512  faces:569996  points:225917
Cells per refinement level:
    0	0
    1	0
    2	11968
    3	144232
    4	5048
    5	11264
Setting cellZones according to locationsInMesh:
Location : (0.05 0.05 1.5)
    cellZone : none

For cellZone none found point (0.05 0.05 1.5) in global region 0 out of 1 regions.
Edge intersection testing:
    Number of edges             : 569996
    Number of edges to retest   : 215480
    Number of intersected edges : 69776

Remove unreachable sections of mesh
-----------------------------------

Split mesh in = 0.5 s


After subsetting : cells:172512  faces:569996  points:225917
Cells per refinement level:
    0	0
    1	0
    2	11968
    3	144232
    4	5048
    5	11264

Merge free-standing baffles
---------------------------

freeStandingBaffles : detected 0 free-standing baffles out of 0

Detected free-standing baffles : 0
Merged free-standing baffles in = 0.08 s


dupNonManifoldPoints : Found : 0 non-manifold points (out of 225917)
Detected unsplittable baffles : 0

Merge refined boundary faces
----------------------------

Merging 160 sets of faces.

Edge intersection testing:
    Number of edges             : 569804
    Number of edges to retest   : 1584
    Number of intersected edges : 69584

Undo iteration 0
----------------
Checking faces in error :
    non-orthogonality > 65  degrees                        : 0
    faces with face pyramid volume < 1e-13                 : 0
    faces with face-decomposition tet quality < 1e-30      : 0
    faces with concavity > 80  degrees                     : 0
    faces with skewness > 4   (internal) or 20  (boundary) : 0
    faces with interpolation weights (0..1)  < 0.02        : 0
    faces with volume ratio of neighbour cells < 0.01      : 0
    faces with face twist < 0.02                           : 0
    faces on cells with determinant < 0.001                : 0

Merging all points on surface that
- are used by only two boundary faces and
- make an angle with a cosine of more than 0.707107.

Removing 144 straight edge points ...

Edge intersection testing:
    Number of edges             : 569804
    Number of edges to retest   : 1328
    Number of intersected edges : 69584

Undo iteration 0
----------------
Checking faces in error :
    non-orthogonality > 65  degrees                        : 0
    faces with face pyramid volume < 1e-13                 : 0
    faces with face-decomposition tet quality < 1e-30      : 0
    faces with concavity > 80  degrees                     : 0
    faces with skewness > 4   (internal) or 20  (boundary) : 0
    faces with interpolation weights (0..1)  < 0.02        : 0
    faces with volume ratio of neighbour cells < 0.01      : 0
    faces with face twist < 0.02                           : 0
    faces on cells with determinant < 0.001                : 0
Refined mesh : cells:172512  faces:569804  points:225757
Cells per refinement level:
    0	0
    1	0
    2	11968
    3	144232
    4	5048
    5	11264
Writing mesh to time constant
Wrote mesh in = 1.61 s.
Mesh refined in = 13.38 s.

Morphing phase
--------------

Duplicating 0 points on faceZones of type boundary
Snapping to features in 10 iterations ...
Constructing mesh displacer ...
Using mesh parameters 
{
    maxNonOrtho     65;
    maxBoundarySkewness 20;
    maxInternalSkewness 4;
    maxConcave      80;
    minFlatness     0.5;
    minVol          1e-13;
    minTetQuality   1e-30;
    minArea         -1;
    minTwist        0.02;
    minDeterminant  0.001;
    minFaceWeight   0.02;
    minVolRatio     0.01;
    minTriangleTwist -1;
    nSmoothScale    4;
    errorReduction  0.75;
}


Checking initial mesh ...
Checking faces in error :
    non-orthogonality > 65  degrees                        : 0
    faces with face pyramid volume < 1e-13                 : 0
    faces with face-decomposition tet quality < 1e-30      : 0
    faces with concavity > 80  degrees                     : 0
    faces with skewness > 4   (internal) or 20  (boundary) : 0
    faces with interpolation weights (0..1)  < 0.02        : 0
    faces with volume ratio of neighbour cells < 0.01      : 0
    faces with face twist < 0.02                           : 0
    faces on cells with determinant < 0.001                : 0
Detected 0 illegal faces (concave, zero area or negative cell pyramid volume)
Checked initial mesh in = 0.37 s


Smoothing patch points ...
Smoothing iteration 0
Found 0 non-manifold point(s).

Scaling iteration 0
Moving mesh using displacement scaling : min:1  max:1
Checking faces in error :
    non-orthogonality > 65  degrees                        : 0
    faces with face pyramid volume < 1e-13                 : 0
    faces with face-decomposition tet quality < 1e-30      : 0
    faces with concavity > 80  degrees                     : 0
    faces with skewness > 4   (internal) or 20  (boundary) : 0
    faces with interpolation weights (0..1)  < 0.02        : 0
    faces with volume ratio of neighbour cells < 0.01      : 0
    faces with face twist < 0.02                           : 0
    faces on cells with determinant < 0.001                : 0
Successfully moved mesh

Smoothing iteration 1
Found 0 non-manifold point(s).

Scaling iteration 0
Moving mesh using displacement scaling : min:1  max:1
Checking faces in error :
    non-orthogonality > 65  degrees                        : 0
    faces with face pyramid volume < 1e-13                 : 0
    faces with face-decomposition tet quality < 1e-30      : 0
    faces with concavity > 80  degrees                     : 0
    faces with skewness > 4   (internal) or 20  (boundary) : 0
    faces with interpolation weights (0..1)  < 0.02        : 0
    faces with volume ratio of neighbour cells < 0.01      : 0
    faces with face twist < 0.02                           : 0
    faces on cells with determinant < 0.001                : 0
Successfully moved mesh

Smoothing iteration 2
Found 0 non-manifold point(s).

Scaling iteration 0
Moving mesh using displacement scaling : min:1  max:1
Checking faces in error :
    non-orthogonality > 65  degrees                        : 0
    faces with face pyramid volume < 1e-13                 : 0
    faces with face-decomposition tet quality < 1e-30      : 0
    faces with concavity > 80  degrees                     : 0
    faces with skewness > 4   (internal) or 20  (boundary) : 0
    faces with interpolation weights (0..1)  < 0.02        : 0
    faces with volume ratio of neighbour cells < 0.01      : 0
    faces with face twist < 0.02                           : 0
    faces on cells with determinant < 0.001                : 0
Successfully moved mesh

Patch points smoothed in = 1.22 s



Morph iteration 0
-----------------
Calculating patchDisplacement as distance to nearest surface point ...
    non-zone points : attract to nearest of all non-zone surfaces
    zone points     : attract to zone surface only

Wanted displacement : average:0.00684874 min:4.7395e-07 max:0.0156454
Calculated surface displacement in = 0.06 s


Detecting near surfaces ...
Overriding nearest with intersection of close gaps at 0 out of 70322 points.
Overriding displacement on features :
   implicit features    : true
   explicit features    : false
   multi-patch features : false

Attraction:
    linear   : max:(-0.0133397 -0.00817498 2.77556e-17) avg:(-1.06736e-07 -2.09786e-06 -1.39336e-07)
    feature  : max:(-0.0133397 -0.00817498 0) avg:(-5.30957e-06 -6.0512e-06 -1.47045e-07)
Feature analysis : total master points :70322 of which attracted to :
    feature point   : 0
    feature edge    : 640
    nearest surface : 69682
    rest            : 0

--> FOAM Warning : Displacement (-6.71383e-06 -2.29272e-05 6.17535e-07) at mesh point 216144 coord (0.378001 0.328069 39.845) points through the surrounding patch faces
Smoothing displacement ...
Iteration 0
Iteration 10
Iteration 20
Displacement smoothed in = 0.59 s


Moving mesh ...

Iteration 0
Moving mesh using displacement scaling : min:1  max:1
Checking faces in error :
    non-orthogonality > 65  degrees                        : 0
    faces with face pyramid volume < 1e-13                 : 0
    faces with face-decomposition tet quality < 1e-30      : 0
    faces with concavity > 80  degrees                     : 0
    faces with skewness > 4   (internal) or 20  (boundary) : 0
    faces with interpolation weights (0..1)  < 0.02        : 0
    faces with volume ratio of neighbour cells < 0.01      : 0
    faces with face twist < 0.02                           : 0
    faces on cells with determinant < 0.001                : 0
Successfully moved mesh
Moved mesh in = 0.36 s



Morph iteration 1
-----------------
Calculating patchDisplacement as distance to nearest surface point ...
    non-zone points : attract to nearest of all non-zone surfaces
    zone points     : attract to zone surface only

Wanted displacement : average:0.00634954 min:4.93074e-07 max:0.0150362
Calculated surface displacement in = 0.05 s


Detecting near surfaces ...
Overriding nearest with intersection of close gaps at 0 out of 70322 points.
Overriding displacement on features :
   implicit features    : true
   explicit features    : false
   multi-patch features : false

Attraction:
    linear   : max:(-0.0128203 -0.00785668 2.13163e-14) avg:(-8.79548e-09 -1.7986e-06 -1.25497e-07)
    feature  : max:(-0.0128203 -0.00785668 0) avg:(-6.77812e-06 -1.03571e-05 -1.34071e-07)
Feature analysis : total master points :70322 of which attracted to :
    feature point   : 0
    feature edge    : 672
    nearest surface : 69650
    rest            : 0

--> FOAM Warning : Displacement (-3.17623e-05 -5.64962e-05 2.35718e-06) at mesh point 216144 coord (0.377994 0.328046 39.845) points through the surrounding patch faces
Smoothing displacement ...
Iteration 0
Iteration 10
Iteration 20
Displacement smoothed in = 0.59 s


Moving mesh ...

Iteration 0
Moving mesh using displacement scaling : min:1  max:1
Checking faces in error :
    non-orthogonality > 65  degrees                        : 0
    faces with face pyramid volume < 1e-13                 : 0
    faces with face-decomposition tet quality < 1e-30      : 0
    faces with concavity > 80  degrees                     : 0
    faces with skewness > 4   (internal) or 20  (boundary) : 0
    faces with interpolation weights (0..1)  < 0.02        : 0
    faces with volume ratio of neighbour cells < 0.01      : 0
    faces with face twist < 0.02                           : 0
    faces on cells with determinant < 0.001                : 0
Successfully moved mesh
Moved mesh in = 0.35 s



Morph iteration 2
-----------------
Calculating patchDisplacement as distance to nearest surface point ...
    non-zone points : attract to nearest of all non-zone surfaces
    zone points     : attract to zone surface only

Wanted displacement : average:0.0055103 min:2.53055e-06 max:0.013702
Calculated surface displacement in = 0.06 s


Detecting near surfaces ...
Overriding nearest with intersection of close gaps at 0 out of 70322 points.
Overriding displacement on features :
   implicit features    : true
   explicit features    : false
   multi-patch features : false

Attraction:
    linear   : max:(-0.0116827 -0.00715953 -1.91847e-13) avg:(9.29959e-08 -1.36995e-06 -1.00309e-07)
    feature  : max:(-0.0116827 -0.00715953 0) avg:(-6.52909e-06 -8.31414e-06 -1.0765e-07)
Feature analysis : total master points :70322 of which attracted to :
    feature point   : 0
    feature edge    : 640
    nearest surface : 69682
    rest            : 0

--> FOAM Warning : Displacement (-0.00011373 -0.000137301 -1.50513e-05) at mesh point 51999 coord (0.380342 0.33104 0.261579) points through the surrounding patch faces
Smoothing displacement ...
Iteration 0
Iteration 10
Iteration 20
Displacement smoothed in = 0.59 s


Moving mesh ...

Iteration 0
Moving mesh using displacement scaling : min:1  max:1
Checking faces in error :
    non-orthogonality > 65  degrees                        : 0
    faces with face pyramid volume < 1e-13                 : 0
    faces with face-decomposition tet quality < 1e-30      : 0
    faces with concavity > 80  degrees                     : 0
    faces with skewness > 4   (internal) or 20  (boundary) : 0
    faces with interpolation weights (0..1)  < 0.02        : 0
    faces with volume ratio of neighbour cells < 0.01      : 0
    faces with face twist < 0.02                           : 0
    faces on cells with determinant < 0.001                : 0
Successfully moved mesh
Moved mesh in = 0.37 s



Morph iteration 3
-----------------
Calculating patchDisplacement as distance to nearest surface point ...
    non-zone points : attract to nearest of all non-zone surfaces
    zone points     : attract to zone surface only

Wanted displacement : average:0.00450611 min:5.15998e-06 max:0.0116752
Calculated surface displacement in = 0.05 s


Detecting near surfaces ...
Overriding nearest with intersection of close gaps at 0 out of 70322 points.
Overriding displacement on features :
   implicit features    : true
   explicit features    : false
   multi-patch features : false

Attraction:
    linear   : max:(-0.00995458 -0.00610048 -1.06581e-13) avg:(2.33439e-07 -8.2144e-07 -7.08368e-08)
    feature  : max:(-0.00995458 -0.00610048 0) avg:(-5.1788e-06 -6.5193e-06 -7.75258e-08)
Feature analysis : total master points :70322 of which attracted to :
    feature point   : 0
    feature edge    : 640
    nearest surface : 69682
    rest            : 0

--> FOAM Warning : Displacement (-4.71475e-05 -2.82698e-05 -8.43109e-05) at mesh point 215966 coord (0.39523 0.307928 0.0368406) points through the surrounding patch faces
Smoothing displacement ...
Iteration 0
Iteration 10
Iteration 20
Displacement smoothed in = 0.58 s


Moving mesh ...

Iteration 0
Moving mesh using displacement scaling : min:1  max:1
Checking faces in error :
    non-orthogonality > 65  degrees                        : 0
    faces with face pyramid volume < 1e-13                 : 0
    faces with face-decomposition tet quality < 1e-30      : 0
    faces with concavity > 80  degrees                     : 0
    faces with skewness > 4   (internal) or 20  (boundary) : 0
    faces with interpolation weights (0..1)  < 0.02        : 0
    faces with volume ratio of neighbour cells < 0.01      : 0
    faces with face twist < 0.02                           : 0
    faces on cells with determinant < 0.001                : 0
Successfully moved mesh
Moved mesh in = 0.36 s



Morph iteration 4
-----------------
Calculating patchDisplacement as distance to nearest surface point ...
    non-zone points : attract to nearest of all non-zone surfaces
    zone points     : attract to zone surface only

Wanted displacement : average:0.00342132 min:4.04309e-07 max:0.00913598
Calculated surface displacement in = 0.05 s


Detecting near surfaces ...
Overriding nearest with intersection of close gaps at 0 out of 70322 points.
Overriding displacement on features :
   implicit features    : true
   explicit features    : false
   multi-patch features : false

Attraction:
    linear   : max:(-0.0077896 -0.00477371 3.55271e-13) avg:(3.33151e-07 -3.24273e-07 -4.41633e-08)
    feature  : max:(-0.0077896 -0.00477371 0) avg:(-3.86964e-06 -4.50659e-06 -4.97874e-08)
Feature analysis : total master points :70322 of which attracted to :
    feature point   : 0
    feature edge    : 640
    nearest surface : 69682
    rest            : 0

--> FOAM Warning : Displacement (-0.000155099 -0.000109736 -6.92964e-05) at mesh point 215966 coord (0.395183 0.3079 0.0367563) points through the surrounding patch faces
Smoothing displacement ...
Iteration 0
Iteration 10
Iteration 20
Displacement smoothed in = 0.57 s


Moving mesh ...

Iteration 0
Moving mesh using displacement scaling : min:1  max:1
Checking faces in error :
    non-orthogonality > 65  degrees                        : 0
    faces with face pyramid volume < 1e-13                 : 0
    faces with face-decomposition tet quality < 1e-30      : 0
    faces with concavity > 80  degrees                     : 0
    faces with skewness > 4   (internal) or 20  (boundary) : 0
    faces with interpolation weights (0..1)  < 0.02        : 0
    faces with volume ratio of neighbour cells < 0.01      : 0
    faces with face twist < 0.02                           : 0
    faces on cells with determinant < 0.001                : 0
Successfully moved mesh
Moved mesh in = 0.35 s



Morph iteration 5
-----------------
Calculating patchDisplacement as distance to nearest surface point ...
    non-zone points : attract to nearest of all non-zone surfaces
    zone points     : attract to zone surface only

Wanted displacement : average:0.00231042 min:2.04959e-07 max:0.00639293
Calculated surface displacement in = 0.06 s


Detecting near surfaces ...
Overriding nearest with intersection of close gaps at 0 out of 70322 points.
Overriding displacement on features :
   implicit features    : true
   explicit features    : false
   multi-patch features : false

Attraction:
    linear   : max:(-0.00545079 -0.00334042 -1.35003e-13) avg:(3.51545e-07 -9.67494e-09 -2.51122e-08)
    feature  : max:(-0.00545079 -0.00334042 0) avg:(-2.56946e-06 -2.69416e-06 -2.93329e-08)
Feature analysis : total master points :70322 of which attracted to :
    feature point   : 0
    feature edge    : 640
    nearest surface : 69682
    rest            : 0

--> FOAM Warning : Displacement (-0.000229499 -0.000169598 -4.90308e-05) at mesh point 215966 coord (0.395028 0.30779 0.036687) points through the surrounding patch faces
Smoothing displacement ...
Iteration 0
Iteration 10
Iteration 20
Displacement smoothed in = 0.59 s


Moving mesh ...

Iteration 0
Moving mesh using displacement scaling : min:1  max:1
Checking faces in error :
    non-orthogonality > 65  degrees                        : 0
    faces with face pyramid volume < 1e-13                 : 0
    faces with face-decomposition tet quality < 1e-30      : 0
    faces with concavity > 80  degrees                     : 0
    faces with skewness > 4   (internal) or 20  (boundary) : 0
    faces with interpolation weights (0..1)  < 0.02        : 0
    faces with volume ratio of neighbour cells < 0.01      : 0
    faces with face twist < 0.02                           : 0
    faces on cells with determinant < 0.001                : 0
Successfully moved mesh
Moved mesh in = 0.35 s



Morph iteration 6
-----------------
Calculating patchDisplacement as distance to nearest surface point ...
    non-zone points : attract to nearest of all non-zone surfaces
    zone points     : attract to zone surface only

Wanted displacement : average:0.00133556 min:2.72169e-08 max:0.00383778
Calculated surface displacement in = 0.05 s


Detecting near surfaces ...
Overriding nearest with intersection of close gaps at 0 out of 70322 points.
Overriding displacement on features :
   implicit features    : true
   explicit features    : false
   multi-patch features : false

Attraction:
    linear   : max:(-0.0032722 -0.00200531 -7.81597e-14) avg:(2.74809e-07 1.00243e-07 -1.38385e-08)
    feature  : max:(-0.00374579 0.00110946 0) avg:(-1.44015e-06 -1.36503e-06 -1.65435e-08)
Feature analysis : total master points :70322 of which attracted to :
    feature point   : 0
    feature edge    : 640
    nearest surface : 69682
    rest            : 0

--> FOAM Warning : Displacement (-1.05701e-05 8.08065e-06 9.60703e-06) at mesh point 32417 coord (0.238467 -0.439537 39.7841) points through the surrounding patch faces
Smoothing displacement ...
Iteration 0
Iteration 10
Iteration 20
Displacement smoothed in = 0.6 s


Moving mesh ...

Iteration 0
Moving mesh using displacement scaling : min:1  max:1
Checking faces in error :
    non-orthogonality > 65  degrees                        : 0
    faces with face pyramid volume < 1e-13                 : 0
    faces with face-decomposition tet quality < 1e-30      : 0
    faces with concavity > 80  degrees                     : 0
    faces with skewness > 4   (internal) or 20  (boundary) : 0
    faces with interpolation weights (0..1)  < 0.02        : 0
    faces with volume ratio of neighbour cells < 0.01      : 0
    faces with face twist < 0.02                           : 0
    faces on cells with determinant < 0.001                : 0
Successfully moved mesh
Moved mesh in = 0.36 s



Morph iteration 7
-----------------
Calculating patchDisplacement as distance to nearest surface point ...
    non-zone points : attract to nearest of all non-zone surfaces
    zone points     : attract to zone surface only

Wanted displacement : average:0.000624386 min:5.24138e-08 max:0.0018481
Calculated surface displacement in = 0.05 s


Detecting near surfaces ...
Overriding nearest with intersection of close gaps at 0 out of 70322 points.
Overriding displacement on features :
   implicit features    : true
   explicit features    : false
   multi-patch features : false

Attraction:
    linear   : max:(-0.00157575 -0.000965667 3.2685e-13) avg:(1.39548e-07 5.67051e-08 -7.27406e-09)
    feature  : max:(-0.00208834 0.000618542 0) avg:(-6.35254e-07 -5.3623e-07 -8.65956e-09)
Feature analysis : total master points :70322 of which attracted to :
    feature point   : 0
    feature edge    : 640
    nearest surface : 69682
    rest            : 0

--> FOAM Warning : Displacement (-5.4263e-05 9.45252e-05 3.95468e-06) at mesh point 32417 coord (0.238456 -0.439529 39.7841) points through the surrounding patch faces
Smoothing displacement ...
Iteration 0
Iteration 10
Iteration 20
Displacement smoothed in = 0.59 s


Moving mesh ...

Iteration 0
Moving mesh using displacement scaling : min:1  max:1
Checking faces in error :
    non-orthogonality > 65  degrees                        : 0
    faces with face pyramid volume < 1e-13                 : 0
    faces with face-decomposition tet quality < 1e-30      : 0
    faces with concavity > 80  degrees                     : 0
    faces with skewness > 4   (internal) or 20  (boundary) : 0
    faces with interpolation weights (0..1)  < 0.02        : 0
    faces with volume ratio of neighbour cells < 0.01      : 0
    faces with face twist < 0.02                           : 0
    faces on cells with determinant < 0.001                : 0
Successfully moved mesh
Moved mesh in = 0.36 s



Morph iteration 8
-----------------
Calculating patchDisplacement as distance to nearest surface point ...
    non-zone points : attract to nearest of all non-zone surfaces
    zone points     : attract to zone surface only

Wanted displacement : average:0.000211639 min:4.78421e-08 max:0.000693082
Calculated surface displacement in = 0.05 s


Detecting near surfaces ...
Overriding nearest with intersection of close gaps at 0 out of 70322 points.
Overriding displacement on features :
   implicit features    : true
   explicit features    : false
   multi-patch features : false

Attraction:
    linear   : max:(0.000330952 0.00060896 0) avg:(3.84323e-08 -9.72593e-09 -1.12771e-08)
    feature  : max:(0.00130412 3.41193e-05 -0) avg:(-1.89345e-07 -5.30635e-08 -1.17729e-08)
Feature analysis : total master points :70322 of which attracted to :
    feature point   : 0
    feature edge    : 640
    nearest surface : 69682
    rest            : 0

--> FOAM Warning : Displacement (6.51365e-07 -1.14004e-07 7.59576e-06) at mesh point 220443 coord (0.37338 -0.0496737 -1.32775e-05) points through the surrounding patch faces
Smoothing displacement ...
Iteration 0
Iteration 10
Iteration 20
Displacement smoothed in = 0.57 s


Moving mesh ...

Iteration 0
Moving mesh using displacement scaling : min:1  max:1
Checking faces in error :
    non-orthogonality > 65  degrees                        : 0
    faces with face pyramid volume < 1e-13                 : 0
    faces with face-decomposition tet quality < 1e-30      : 0
    faces with concavity > 80  degrees                     : 0
    faces with skewness > 4   (internal) or 20  (boundary) : 0
    faces with interpolation weights (0..1)  < 0.02        : 0
    faces with volume ratio of neighbour cells < 0.01      : 0
    faces with face twist < 0.02                           : 0
    faces on cells with determinant < 0.001                : 0
Successfully moved mesh
Moved mesh in = 0.37 s



Morph iteration 9
-----------------
Calculating patchDisplacement as distance to nearest surface point ...
    non-zone points : attract to nearest of all non-zone surfaces
    zone points     : attract to zone surface only

Wanted displacement : average:4.03257e-05 min:2.09886e-08 max:0.000313891
Calculated surface displacement in = 0.05 s


Detecting near surfaces ...
Overriding nearest with intersection of close gaps at 0 out of 70322 points.
Overriding displacement on features :
   implicit features    : true
   explicit features    : false
   multi-patch features : false

Attraction:
    linear   : max:(0.000149886 0.000275793 0) avg:(2.06731e-08 -2.31894e-09 -1.08162e-08)
    feature  : max:(0.00126298 3.30429e-05 -0) avg:(-2.77644e-09 1.45429e-07 -1.11935e-08)
Feature analysis : total master points :70322 of which attracted to :
    feature point   : 0
    feature edge    : 640
    nearest surface : 69682
    rest            : 0

--> FOAM Warning : Displacement (1.38778e-17 6.93889e-18 7.85359e-08) at mesh point 30705 coord (-0.0500005 -0.0500005 -1.98588e-06) points through the surrounding patch faces
Smoothing displacement ...
Iteration 0
Iteration 10
Iteration 20
Displacement smoothed in = 0.51 s


Moving mesh ...

Iteration 0
Moving mesh using displacement scaling : min:1  max:1
Checking faces in error :
    non-orthogonality > 65  degrees                        : 0
    faces with face pyramid volume < 1e-13                 : 0
    faces with face-decomposition tet quality < 1e-30      : 0
    faces with concavity > 80  degrees                     : 0
    faces with skewness > 4   (internal) or 20  (boundary) : 0
    faces with interpolation weights (0..1)  < 0.02        : 0
    faces with volume ratio of neighbour cells < 0.01      : 0
    faces with face twist < 0.02                           : 0
    faces on cells with determinant < 0.001                : 0
Successfully moved mesh
Moved mesh in = 0.35 s


Repatching faces according to nearest surface ...
Repatched 0 faces in = 0.34 s


Edge intersection testing:
    Number of edges             : 569804
    Number of edges to retest   : 215416
    Number of intersected edges : 69760
Merging 20000 sets of faces.

Edge intersection testing:
    Number of edges             : 549628
    Number of edges to retest   : 80552
    Number of intersected edges : 49584

Undo iteration 0
----------------
Checking faces in error :
    non-orthogonality > 65  degrees                        : 0
    faces with face pyramid volume < 1e-13                 : 0
    faces with face-decomposition tet quality < 1e-30      : 0
    faces with concavity > 80  degrees                     : 0
    faces with skewness > 4   (internal) or 20  (boundary) : 0
    faces with interpolation weights (0..1)  < 0.02        : 0
    faces with volume ratio of neighbour cells < 0.01      : 0
    faces with face twist < 0.02                           : 0
    faces on cells with determinant < 0.001                : 0

Merging all points on surface that
- are used by only two boundary faces and
- make an angle with a cosine of more than 0.5.

Removing 20040 straight edge points ...

Edge intersection testing:
    Number of edges             : 549628
    Number of edges to retest   : 80552
    Number of intersected edges : 49584

Undo iteration 0
----------------
Checking faces in error :
    non-orthogonality > 65  degrees                        : 0
    faces with face pyramid volume < 1e-13                 : 0
    faces with face-decomposition tet quality < 1e-30      : 0
    faces with concavity > 80  degrees                     : 0
    faces with skewness > 4   (internal) or 20  (boundary) : 0
    faces with interpolation weights (0..1)  < 0.02        : 0
    faces with volume ratio of neighbour cells < 0.01      : 0
    faces with face twist < 0.02                           : 0
    faces on cells with determinant < 0.001                : 0
Snapped mesh : cells:172512  faces:549628  points:205541
Cells per refinement level:
    0	0
    1	0
    2	11968
    3	144232
    4	5048
    5	11264
Writing mesh to time constant
Wrote mesh in = 2.44 s.
Mesh snapped in = 14.26 s.
Checking final mesh ...
Checking faces in error :
    non-orthogonality > 65  degrees                        : 0
    faces with face pyramid volume < 1e-13                 : 0
    faces with face-decomposition tet quality < 1e-30      : 0
    faces with concavity > 80  degrees                     : 0
    faces with skewness > 4   (internal) or 20  (boundary) : 0
    faces with interpolation weights (0..1)  < 0.02        : 0
    faces with volume ratio of neighbour cells < 0.01      : 0
    faces with face twist < 0.02                           : 0
    faces on cells with determinant < 0.001                : 0
Finished meshing without any errors
Finished meshing in = 27.97 s.
End

